
---------- Begin Simulation Statistics ----------
final_tick                                52582725500                       # Number of ticks from beginning of simulation (restored from checkpoints and never reset)
host_inst_rate                                 936540                       # Simulator instruction rate (inst/s)
host_mem_usage                                 693484                       # Number of bytes of host memory used
host_op_rate                                  1640492                       # Simulator op (including micro ops) rate (op/s)
host_seconds                                    41.82                       # Real time elapsed on the host
host_tick_rate                             1257497078                       # Simulator tick rate (ticks/s)
sim_freq                                 1000000000000                       # Frequency of simulated ticks
sim_insts                                    39161650                       # Number of instructions simulated
sim_ops                                      68597760                       # Number of ops (including micro ops) simulated
sim_seconds                                  0.052583                       # Number of seconds simulated
sim_ticks                                 52582725500                       # Number of ticks simulated
system.cpu.Branches                           8083441                       # Number of branches fetched
system.cpu.committedInsts                    39161650                       # Number of instructions committed
system.cpu.committedOps                      68597760                       # Number of ops (including micro ops) committed
system.cpu.dtb.rdAccesses                     2332982                       # TLB accesses on read requests
system.cpu.dtb.rdMisses                            17                       # TLB misses on read requests
system.cpu.dtb.wrAccesses                      530262                       # TLB accesses on write requests
system.cpu.dtb.wrMisses                             8                       # TLB misses on write requests
system.cpu.idle_fraction                     0.000000                       # Percentage of idle cycles
system.cpu.itb.rdAccesses                           0                       # TLB accesses on read requests
system.cpu.itb.rdMisses                             0                       # TLB misses on read requests
system.cpu.itb.wrAccesses                    49648964                       # TLB accesses on write requests
system.cpu.itb.wrMisses                            55                       # TLB misses on write requests
system.cpu.not_idle_fraction                 1.000000                       # Percentage of non-idle cycles
system.cpu.numCycles                        105165451                       # number of cpu cycles simulated
system.cpu.numWorkItemsCompleted                    0                       # number of work items this cpu completed
system.cpu.numWorkItemsStarted                      0                       # number of work items this cpu started
system.cpu.num_busy_cycles               105165450.998000                       # Number of busy cycles
system.cpu.num_cc_register_reads             45118230                       # number of times the CC registers were read
system.cpu.num_cc_register_writes            43273569                       # number of times the CC registers were written
system.cpu.num_conditional_control_insts      6956464                       # number of instructions that are conditional controls
system.cpu.num_fp_alu_accesses                   3692                       # Number of float alu accesses
system.cpu.num_fp_insts                          3692                       # number of float instructions
system.cpu.num_fp_register_reads                 6369                       # number of times the floating registers were read
system.cpu.num_fp_register_writes                2785                       # number of times the floating registers were written
system.cpu.num_func_calls                     1051182                       # number of times a function call or return occured
system.cpu.num_idle_cycles                   0.002000                       # Number of idle cycles
system.cpu.num_int_alu_accesses              68445047                       # Number of integer alu accesses
system.cpu.num_int_insts                     68445047                       # number of integer instructions
system.cpu.num_int_register_reads           109809435                       # number of times the integer registers were read
system.cpu.num_int_register_writes           59831405                       # number of times the integer registers were written
system.cpu.num_load_insts                     2332961                       # Number of load instructions
system.cpu.num_mem_refs                       2863210                       # number of memory refs
system.cpu.num_store_insts                     530249                       # Number of store instructions
system.cpu.num_vec_alu_accesses                     0                       # Number of vector alu accesses
system.cpu.num_vec_insts                            0                       # number of vector instructions
system.cpu.num_vec_register_reads                   0                       # number of times the vector registers were read
system.cpu.num_vec_register_writes                  0                       # number of times the vector registers were written
system.cpu.op_class::No_OpClass                150277      0.22%      0.22% # Class of executed instruction
system.cpu.op_class::IntAlu                  65581992     95.60%     95.82% # Class of executed instruction
system.cpu.op_class::IntMult                      127      0.00%     95.82% # Class of executed instruction
system.cpu.op_class::IntDiv                        91      0.00%     95.82% # Class of executed instruction
system.cpu.op_class::FloatAdd                      71      0.00%     95.82% # Class of executed instruction
system.cpu.op_class::FloatCmp                       0      0.00%     95.82% # Class of executed instruction
system.cpu.op_class::FloatCvt                       0      0.00%     95.82% # Class of executed instruction
system.cpu.op_class::FloatMult                      0      0.00%     95.82% # Class of executed instruction
system.cpu.op_class::FloatMultAcc                   0      0.00%     95.82% # Class of executed instruction
system.cpu.op_class::FloatDiv                       0      0.00%     95.82% # Class of executed instruction
system.cpu.op_class::FloatMisc                      0      0.00%     95.82% # Class of executed instruction
system.cpu.op_class::FloatSqrt                      0      0.00%     95.82% # Class of executed instruction
system.cpu.op_class::SimdAdd                      374      0.00%     95.82% # Class of executed instruction
system.cpu.op_class::SimdAddAcc                     0      0.00%     95.82% # Class of executed instruction
system.cpu.op_class::SimdAlu                      366      0.00%     95.82% # Class of executed instruction
system.cpu.op_class::SimdCmp                        6      0.00%     95.82% # Class of executed instruction
system.cpu.op_class::SimdCvt                      348      0.00%     95.82% # Class of executed instruction
system.cpu.op_class::SimdMisc                     656      0.00%     95.83% # Class of executed instruction
system.cpu.op_class::SimdMult                       0      0.00%     95.83% # Class of executed instruction
system.cpu.op_class::SimdMultAcc                    0      0.00%     95.83% # Class of executed instruction
system.cpu.op_class::SimdShift                    186      0.00%     95.83% # Class of executed instruction
system.cpu.op_class::SimdShiftAcc                   0      0.00%     95.83% # Class of executed instruction
system.cpu.op_class::SimdDiv                        0      0.00%     95.83% # Class of executed instruction
system.cpu.op_class::SimdSqrt                       0      0.00%     95.83% # Class of executed instruction
system.cpu.op_class::SimdFloatAdd                   0      0.00%     95.83% # Class of executed instruction
system.cpu.op_class::SimdFloatAlu                   0      0.00%     95.83% # Class of executed instruction
system.cpu.op_class::SimdFloatCmp                  14      0.00%     95.83% # Class of executed instruction
system.cpu.op_class::SimdFloatCvt                  35      0.00%     95.83% # Class of executed instruction
system.cpu.op_class::SimdFloatDiv                   7      0.00%     95.83% # Class of executed instruction
system.cpu.op_class::SimdFloatMisc                  0      0.00%     95.83% # Class of executed instruction
system.cpu.op_class::SimdFloatMult                  0      0.00%     95.83% # Class of executed instruction
system.cpu.op_class::SimdFloatMultAcc               0      0.00%     95.83% # Class of executed instruction
system.cpu.op_class::SimdFloatSqrt                  0      0.00%     95.83% # Class of executed instruction
system.cpu.op_class::SimdReduceAdd                  0      0.00%     95.83% # Class of executed instruction
system.cpu.op_class::SimdReduceAlu                  0      0.00%     95.83% # Class of executed instruction
system.cpu.op_class::SimdReduceCmp                  0      0.00%     95.83% # Class of executed instruction
system.cpu.op_class::SimdFloatReduceAdd             0      0.00%     95.83% # Class of executed instruction
system.cpu.op_class::SimdFloatReduceCmp             0      0.00%     95.83% # Class of executed instruction
system.cpu.op_class::SimdAes                        0      0.00%     95.83% # Class of executed instruction
system.cpu.op_class::SimdAesMix                     0      0.00%     95.83% # Class of executed instruction
system.cpu.op_class::SimdSha1Hash                   0      0.00%     95.83% # Class of executed instruction
system.cpu.op_class::SimdSha1Hash2                  0      0.00%     95.83% # Class of executed instruction
system.cpu.op_class::SimdSha256Hash                 0      0.00%     95.83% # Class of executed instruction
system.cpu.op_class::SimdSha256Hash2                0      0.00%     95.83% # Class of executed instruction
system.cpu.op_class::SimdShaSigma2                  0      0.00%     95.83% # Class of executed instruction
system.cpu.op_class::SimdShaSigma3                  0      0.00%     95.83% # Class of executed instruction
system.cpu.op_class::SimdPredAlu                    0      0.00%     95.83% # Class of executed instruction
system.cpu.op_class::MemRead                  2332612      3.40%     99.23% # Class of executed instruction
system.cpu.op_class::MemWrite                  529629      0.77%    100.00% # Class of executed instruction
system.cpu.op_class::FloatMemRead                 349      0.00%    100.00% # Class of executed instruction
system.cpu.op_class::FloatMemWrite                620      0.00%    100.00% # Class of executed instruction
system.cpu.op_class::IprAccess                      0      0.00%    100.00% # Class of executed instruction
system.cpu.op_class::InstPrefetch                   0      0.00%    100.00% # Class of executed instruction
system.cpu.op_class::total                   68597760                       # Class of executed instruction
system.cpu.workload.numSyscalls                    36                       # Number of system calls
system.membus.snoop_filter.hit_multi_requests            0                       # Number of requests hitting in the snoop filter with multiple (>1) holders of the requested data.
system.membus.snoop_filter.hit_multi_snoops            0                       # Number of snoops hitting in the snoop filter with multiple (>1) holders of the requested data.
system.membus.snoop_filter.hit_single_requests            0                       # Number of requests hitting in the snoop filter with a single holder of the requested data.
system.membus.snoop_filter.hit_single_snoops            0                       # Number of snoops hitting in the snoop filter with a single holder of the requested data.
system.membus.snoop_filter.tot_requests           899                       # Total number of requests made to the snoop filter.
system.membus.snoop_filter.tot_snoops               0                       # Total number of snoops made to the snoop filter.
system.tol2bus.snoop_filter.hit_multi_requests            0                       # Number of requests hitting in the snoop filter with multiple (>1) holders of the requested data.
system.tol2bus.snoop_filter.hit_multi_snoops            0                       # Number of snoops hitting in the snoop filter with multiple (>1) holders of the requested data.
system.tol2bus.snoop_filter.hit_single_requests          221                       # Number of requests hitting in the snoop filter with a single holder of the requested data.
system.tol2bus.snoop_filter.hit_single_snoops            0                       # Number of snoops hitting in the snoop filter with a single holder of the requested data.
system.tol2bus.snoop_filter.tot_requests         1185                       # Total number of requests made to the snoop filter.
system.tol2bus.snoop_filter.tot_snoops              0                       # Total number of snoops made to the snoop filter.
system.membus.pwrStateResidencyTicks::UNDEFINED  52582725500                       # Cumulative time (in ticks) in various power states
system.membus.trans_dist::ReadResp                769                       # Transaction distribution
system.membus.trans_dist::ReadExReq               130                       # Transaction distribution
system.membus.trans_dist::ReadExResp              130                       # Transaction distribution
system.membus.trans_dist::ReadSharedReq           769                       # Transaction distribution
system.membus.pkt_count_system.l2.mem_side::system.mem_ctrls.port         1798                       # Packet count per connected master and slave (bytes)
system.membus.pkt_count_system.l2.mem_side::total         1798                       # Packet count per connected master and slave (bytes)
system.membus.pkt_count::total                   1798                       # Packet count per connected master and slave (bytes)
system.membus.pkt_size_system.l2.mem_side::system.mem_ctrls.port        57536                       # Cumulative packet size per connected master and slave (bytes)
system.membus.pkt_size_system.l2.mem_side::total        57536                       # Cumulative packet size per connected master and slave (bytes)
system.membus.pkt_size::total                   57536                       # Cumulative packet size per connected master and slave (bytes)
system.membus.snoops                                0                       # Total snoops (count)
system.membus.snoopTraffic                          0                       # Total snoop traffic (bytes)
system.membus.snoop_fanout::samples               899                       # Request fanout histogram
system.membus.snoop_fanout::mean                    0                       # Request fanout histogram
system.membus.snoop_fanout::stdev                   0                       # Request fanout histogram
system.membus.snoop_fanout::underflows              0      0.00%      0.00% # Request fanout histogram
system.membus.snoop_fanout::0                     899    100.00%    100.00% # Request fanout histogram
system.membus.snoop_fanout::1                       0      0.00%    100.00% # Request fanout histogram
system.membus.snoop_fanout::overflows               0      0.00%    100.00% # Request fanout histogram
system.membus.snoop_fanout::min_value               0                       # Request fanout histogram
system.membus.snoop_fanout::max_value               0                       # Request fanout histogram
system.membus.snoop_fanout::total                 899                       # Request fanout histogram
system.membus.reqLayer2.occupancy              907000                       # Layer occupancy (ticks)
system.membus.reqLayer2.utilization               0.0                       # Layer utilization (%)
system.membus.respLayer1.occupancy            4785500                       # Layer occupancy (ticks)
system.membus.respLayer1.utilization              0.0                       # Layer utilization (%)
system.tol2bus.pwrStateResidencyTicks::UNDEFINED  52582725500                       # Cumulative time (in ticks) in various power states
system.tol2bus.trans_dist::ReadResp               834                       # Transaction distribution
system.tol2bus.trans_dist::WritebackClean          219                       # Transaction distribution
system.tol2bus.trans_dist::CleanEvict               2                       # Transaction distribution
system.tol2bus.trans_dist::ReadExReq              130                       # Transaction distribution
system.tol2bus.trans_dist::ReadExResp             130                       # Transaction distribution
system.tol2bus.trans_dist::ReadCleanReq           693                       # Transaction distribution
system.tol2bus.trans_dist::ReadSharedReq          141                       # Transaction distribution
system.tol2bus.pkt_count_system.cpu.icache.mem_side::system.l2.cpu_side         1605                       # Packet count per connected master and slave (bytes)
system.tol2bus.pkt_count_system.cpu.dcache.mem_side::system.l2.cpu_side          544                       # Packet count per connected master and slave (bytes)
system.tol2bus.pkt_count::total                  2149                       # Packet count per connected master and slave (bytes)
system.tol2bus.pkt_size_system.cpu.icache.mem_side::system.l2.cpu_side        58368                       # Cumulative packet size per connected master and slave (bytes)
system.tol2bus.pkt_size_system.cpu.dcache.mem_side::system.l2.cpu_side        17344                       # Cumulative packet size per connected master and slave (bytes)
system.tol2bus.pkt_size::total                  75712                       # Cumulative packet size per connected master and slave (bytes)
system.tol2bus.snoops                               0                       # Total snoops (count)
system.tol2bus.snoopTraffic                         0                       # Total snoop traffic (bytes)
system.tol2bus.snoop_fanout::samples              964                       # Request fanout histogram
system.tol2bus.snoop_fanout::mean                   0                       # Request fanout histogram
system.tol2bus.snoop_fanout::stdev                  0                       # Request fanout histogram
system.tol2bus.snoop_fanout::underflows             0      0.00%      0.00% # Request fanout histogram
system.tol2bus.snoop_fanout::0                    964    100.00%    100.00% # Request fanout histogram
system.tol2bus.snoop_fanout::1                      0      0.00%    100.00% # Request fanout histogram
system.tol2bus.snoop_fanout::2                      0      0.00%    100.00% # Request fanout histogram
system.tol2bus.snoop_fanout::3                      0      0.00%    100.00% # Request fanout histogram
system.tol2bus.snoop_fanout::4                      0      0.00%    100.00% # Request fanout histogram
system.tol2bus.snoop_fanout::overflows              0      0.00%    100.00% # Request fanout histogram
system.tol2bus.snoop_fanout::min_value              0                       # Request fanout histogram
system.tol2bus.snoop_fanout::max_value              0                       # Request fanout histogram
system.tol2bus.snoop_fanout::total                964                       # Request fanout histogram
system.tol2bus.reqLayer0.occupancy             811500                       # Layer occupancy (ticks)
system.tol2bus.reqLayer0.utilization              0.0                       # Layer utilization (%)
system.tol2bus.respLayer1.occupancy            406500                       # Layer occupancy (ticks)
system.tol2bus.respLayer1.utilization             0.0                       # Layer utilization (%)
system.tol2bus.respLayer0.occupancy           1039500                       # Layer occupancy (ticks)
system.tol2bus.respLayer0.utilization             0.0                       # Layer utilization (%)
system.voltage_domain.voltage                       1                       # Voltage in Volts
system.clk_domain.clock                          1000                       # Clock period in ticks
system.l2.pwrStateResidencyTicks::UNDEFINED  52582725500                       # Cumulative time (in ticks) in various power states
system.l2.demand_hits::.cpu.inst                   65                       # number of demand (read+write) hits
system.l2.demand_hits::total                       65                       # number of demand (read+write) hits
system.l2.overall_hits::.cpu.inst                  65                       # number of overall hits
system.l2.overall_hits::total                      65                       # number of overall hits
system.l2.demand_misses::.cpu.inst                628                       # number of demand (read+write) misses
system.l2.demand_misses::.cpu.data                271                       # number of demand (read+write) misses
system.l2.demand_misses::total                    899                       # number of demand (read+write) misses
system.l2.overall_misses::.cpu.inst               628                       # number of overall misses
system.l2.overall_misses::.cpu.data               271                       # number of overall misses
system.l2.overall_misses::total                   899                       # number of overall misses
system.l2.demand_miss_latency::.cpu.inst     47504500                       # number of demand (read+write) miss cycles
system.l2.demand_miss_latency::.cpu.data     20902000                       # number of demand (read+write) miss cycles
system.l2.demand_miss_latency::total         68406500                       # number of demand (read+write) miss cycles
system.l2.overall_miss_latency::.cpu.inst     47504500                       # number of overall miss cycles
system.l2.overall_miss_latency::.cpu.data     20902000                       # number of overall miss cycles
system.l2.overall_miss_latency::total        68406500                       # number of overall miss cycles
system.l2.demand_accesses::.cpu.inst              693                       # number of demand (read+write) accesses
system.l2.demand_accesses::.cpu.data              271                       # number of demand (read+write) accesses
system.l2.demand_accesses::total                  964                       # number of demand (read+write) accesses
system.l2.overall_accesses::.cpu.inst             693                       # number of overall (read+write) accesses
system.l2.overall_accesses::.cpu.data             271                       # number of overall (read+write) accesses
system.l2.overall_accesses::total                 964                       # number of overall (read+write) accesses
system.l2.demand_miss_rate::.cpu.inst        0.906205                       # miss rate for demand accesses
system.l2.demand_miss_rate::.cpu.data               1                       # miss rate for demand accesses
system.l2.demand_miss_rate::total            0.932573                       # miss rate for demand accesses
system.l2.overall_miss_rate::.cpu.inst       0.906205                       # miss rate for overall accesses
system.l2.overall_miss_rate::.cpu.data              1                       # miss rate for overall accesses
system.l2.overall_miss_rate::total           0.932573                       # miss rate for overall accesses
system.l2.demand_avg_miss_latency::.cpu.inst 75644.108280                       # average overall miss latency
system.l2.demand_avg_miss_latency::.cpu.data 77129.151292                       # average overall miss latency
system.l2.demand_avg_miss_latency::total 76091.768632                       # average overall miss latency
system.l2.overall_avg_miss_latency::.cpu.inst 75644.108280                       # average overall miss latency
system.l2.overall_avg_miss_latency::.cpu.data 77129.151292                       # average overall miss latency
system.l2.overall_avg_miss_latency::total 76091.768632                       # average overall miss latency
system.l2.blocked_cycles::no_mshrs                  0                       # number of cycles access was blocked
system.l2.blocked_cycles::no_targets                0                       # number of cycles access was blocked
system.l2.blocked::no_mshrs                         0                       # number of cycles access was blocked
system.l2.blocked::no_targets                       0                       # number of cycles access was blocked
system.l2.avg_blocked_cycles::no_mshrs            nan                       # average number of cycles each access was blocked
system.l2.avg_blocked_cycles::no_targets          nan                       # average number of cycles each access was blocked
system.l2.demand_mshr_misses::.cpu.inst           628                       # number of demand (read+write) MSHR misses
system.l2.demand_mshr_misses::.cpu.data           271                       # number of demand (read+write) MSHR misses
system.l2.demand_mshr_misses::total               899                       # number of demand (read+write) MSHR misses
system.l2.overall_mshr_misses::.cpu.inst          628                       # number of overall MSHR misses
system.l2.overall_mshr_misses::.cpu.data          271                       # number of overall MSHR misses
system.l2.overall_mshr_misses::total              899                       # number of overall MSHR misses
system.l2.demand_mshr_miss_latency::.cpu.inst     41224500                       # number of demand (read+write) MSHR miss cycles
system.l2.demand_mshr_miss_latency::.cpu.data     18192000                       # number of demand (read+write) MSHR miss cycles
system.l2.demand_mshr_miss_latency::total     59416500                       # number of demand (read+write) MSHR miss cycles
system.l2.overall_mshr_miss_latency::.cpu.inst     41224500                       # number of overall MSHR miss cycles
system.l2.overall_mshr_miss_latency::.cpu.data     18192000                       # number of overall MSHR miss cycles
system.l2.overall_mshr_miss_latency::total     59416500                       # number of overall MSHR miss cycles
system.l2.demand_mshr_miss_rate::.cpu.inst     0.906205                       # mshr miss rate for demand accesses
system.l2.demand_mshr_miss_rate::.cpu.data            1                       # mshr miss rate for demand accesses
system.l2.demand_mshr_miss_rate::total       0.932573                       # mshr miss rate for demand accesses
system.l2.overall_mshr_miss_rate::.cpu.inst     0.906205                       # mshr miss rate for overall accesses
system.l2.overall_mshr_miss_rate::.cpu.data            1                       # mshr miss rate for overall accesses
system.l2.overall_mshr_miss_rate::total      0.932573                       # mshr miss rate for overall accesses
system.l2.demand_avg_mshr_miss_latency::.cpu.inst 65644.108280                       # average overall mshr miss latency
system.l2.demand_avg_mshr_miss_latency::.cpu.data 67129.151292                       # average overall mshr miss latency
system.l2.demand_avg_mshr_miss_latency::total 66091.768632                       # average overall mshr miss latency
system.l2.overall_avg_mshr_miss_latency::.cpu.inst 65644.108280                       # average overall mshr miss latency
system.l2.overall_avg_mshr_miss_latency::.cpu.data 67129.151292                       # average overall mshr miss latency
system.l2.overall_avg_mshr_miss_latency::total 66091.768632                       # average overall mshr miss latency
system.l2.replacements                              0                       # number of replacements
system.l2.WritebackClean_hits::.writebacks          219                       # number of WritebackClean hits
system.l2.WritebackClean_hits::total              219                       # number of WritebackClean hits
system.l2.WritebackClean_accesses::.writebacks          219                       # number of WritebackClean accesses(hits+misses)
system.l2.WritebackClean_accesses::total          219                       # number of WritebackClean accesses(hits+misses)
system.l2.ReadExReq_misses::.cpu.data             130                       # number of ReadExReq misses
system.l2.ReadExReq_misses::total                 130                       # number of ReadExReq misses
system.l2.ReadExReq_miss_latency::.cpu.data      9702500                       # number of ReadExReq miss cycles
system.l2.ReadExReq_miss_latency::total       9702500                       # number of ReadExReq miss cycles
system.l2.ReadExReq_accesses::.cpu.data           130                       # number of ReadExReq accesses(hits+misses)
system.l2.ReadExReq_accesses::total               130                       # number of ReadExReq accesses(hits+misses)
system.l2.ReadExReq_miss_rate::.cpu.data            1                       # miss rate for ReadExReq accesses
system.l2.ReadExReq_miss_rate::total                1                       # miss rate for ReadExReq accesses
system.l2.ReadExReq_avg_miss_latency::.cpu.data 74634.615385                       # average ReadExReq miss latency
system.l2.ReadExReq_avg_miss_latency::total 74634.615385                       # average ReadExReq miss latency
system.l2.ReadExReq_mshr_misses::.cpu.data          130                       # number of ReadExReq MSHR misses
system.l2.ReadExReq_mshr_misses::total            130                       # number of ReadExReq MSHR misses
system.l2.ReadExReq_mshr_miss_latency::.cpu.data      8402500                       # number of ReadExReq MSHR miss cycles
system.l2.ReadExReq_mshr_miss_latency::total      8402500                       # number of ReadExReq MSHR miss cycles
system.l2.ReadExReq_mshr_miss_rate::.cpu.data            1                       # mshr miss rate for ReadExReq accesses
system.l2.ReadExReq_mshr_miss_rate::total            1                       # mshr miss rate for ReadExReq accesses
system.l2.ReadExReq_avg_mshr_miss_latency::.cpu.data 64634.615385                       # average ReadExReq mshr miss latency
system.l2.ReadExReq_avg_mshr_miss_latency::total 64634.615385                       # average ReadExReq mshr miss latency
system.l2.ReadCleanReq_hits::.cpu.inst             65                       # number of ReadCleanReq hits
system.l2.ReadCleanReq_hits::total                 65                       # number of ReadCleanReq hits
system.l2.ReadCleanReq_misses::.cpu.inst          628                       # number of ReadCleanReq misses
system.l2.ReadCleanReq_misses::total              628                       # number of ReadCleanReq misses
system.l2.ReadCleanReq_miss_latency::.cpu.inst     47504500                       # number of ReadCleanReq miss cycles
system.l2.ReadCleanReq_miss_latency::total     47504500                       # number of ReadCleanReq miss cycles
system.l2.ReadCleanReq_accesses::.cpu.inst          693                       # number of ReadCleanReq accesses(hits+misses)
system.l2.ReadCleanReq_accesses::total            693                       # number of ReadCleanReq accesses(hits+misses)
system.l2.ReadCleanReq_miss_rate::.cpu.inst     0.906205                       # miss rate for ReadCleanReq accesses
system.l2.ReadCleanReq_miss_rate::total      0.906205                       # miss rate for ReadCleanReq accesses
system.l2.ReadCleanReq_avg_miss_latency::.cpu.inst 75644.108280                       # average ReadCleanReq miss latency
system.l2.ReadCleanReq_avg_miss_latency::total 75644.108280                       # average ReadCleanReq miss latency
system.l2.ReadCleanReq_mshr_misses::.cpu.inst          628                       # number of ReadCleanReq MSHR misses
system.l2.ReadCleanReq_mshr_misses::total          628                       # number of ReadCleanReq MSHR misses
system.l2.ReadCleanReq_mshr_miss_latency::.cpu.inst     41224500                       # number of ReadCleanReq MSHR miss cycles
system.l2.ReadCleanReq_mshr_miss_latency::total     41224500                       # number of ReadCleanReq MSHR miss cycles
system.l2.ReadCleanReq_mshr_miss_rate::.cpu.inst     0.906205                       # mshr miss rate for ReadCleanReq accesses
system.l2.ReadCleanReq_mshr_miss_rate::total     0.906205                       # mshr miss rate for ReadCleanReq accesses
system.l2.ReadCleanReq_avg_mshr_miss_latency::.cpu.inst 65644.108280                       # average ReadCleanReq mshr miss latency
system.l2.ReadCleanReq_avg_mshr_miss_latency::total 65644.108280                       # average ReadCleanReq mshr miss latency
system.l2.ReadSharedReq_misses::.cpu.data          141                       # number of ReadSharedReq misses
system.l2.ReadSharedReq_misses::total             141                       # number of ReadSharedReq misses
system.l2.ReadSharedReq_miss_latency::.cpu.data     11199500                       # number of ReadSharedReq miss cycles
system.l2.ReadSharedReq_miss_latency::total     11199500                       # number of ReadSharedReq miss cycles
system.l2.ReadSharedReq_accesses::.cpu.data          141                       # number of ReadSharedReq accesses(hits+misses)
system.l2.ReadSharedReq_accesses::total           141                       # number of ReadSharedReq accesses(hits+misses)
system.l2.ReadSharedReq_miss_rate::.cpu.data            1                       # miss rate for ReadSharedReq accesses
system.l2.ReadSharedReq_miss_rate::total            1                       # miss rate for ReadSharedReq accesses
system.l2.ReadSharedReq_avg_miss_latency::.cpu.data 79429.078014                       # average ReadSharedReq miss latency
system.l2.ReadSharedReq_avg_miss_latency::total 79429.078014                       # average ReadSharedReq miss latency
system.l2.ReadSharedReq_mshr_misses::.cpu.data          141                       # number of ReadSharedReq MSHR misses
system.l2.ReadSharedReq_mshr_misses::total          141                       # number of ReadSharedReq MSHR misses
system.l2.ReadSharedReq_mshr_miss_latency::.cpu.data      9789500                       # number of ReadSharedReq MSHR miss cycles
system.l2.ReadSharedReq_mshr_miss_latency::total      9789500                       # number of ReadSharedReq MSHR miss cycles
system.l2.ReadSharedReq_mshr_miss_rate::.cpu.data            1                       # mshr miss rate for ReadSharedReq accesses
system.l2.ReadSharedReq_mshr_miss_rate::total            1                       # mshr miss rate for ReadSharedReq accesses
system.l2.ReadSharedReq_avg_mshr_miss_latency::.cpu.data 69429.078014                       # average ReadSharedReq mshr miss latency
system.l2.ReadSharedReq_avg_mshr_miss_latency::total 69429.078014                       # average ReadSharedReq mshr miss latency
system.l2.tags.pwrStateResidencyTicks::UNDEFINED  52582725500                       # Cumulative time (in ticks) in various power states
system.l2.tags.tagsinuse                   792.844071                       # Cycle average of tags in use
system.l2.tags.total_refs                        1185                       # Total number of references to valid blocks.
system.l2.tags.sampled_refs                       899                       # Sample count of references to valid blocks.
system.l2.tags.avg_refs                      1.318131                       # Average number of references to valid blocks.
system.l2.tags.warmup_cycle                     77000                       # Cycle when the warmup percentage was hit.
system.l2.tags.occ_blocks::.cpu.inst       541.904840                       # Average occupied blocks per requestor
system.l2.tags.occ_blocks::.cpu.data       250.939231                       # Average occupied blocks per requestor
system.l2.tags.occ_percent::.cpu.inst        0.016538                       # Average percentage of cache occupancy
system.l2.tags.occ_percent::.cpu.data        0.007658                       # Average percentage of cache occupancy
system.l2.tags.occ_percent::total            0.024196                       # Average percentage of cache occupancy
system.l2.tags.occ_task_id_blocks::1024           899                       # Occupied blocks per task id
system.l2.tags.age_task_id_blocks_1024::0           63                       # Occupied blocks per task id
system.l2.tags.age_task_id_blocks_1024::1            2                       # Occupied blocks per task id
system.l2.tags.age_task_id_blocks_1024::4          834                       # Occupied blocks per task id
system.l2.tags.occ_task_id_percent::1024     0.027435                       # Percentage of cache occupancy per task id
system.l2.tags.tag_accesses                     10379                       # Number of tag accesses
system.l2.tags.data_accesses                    10379                       # Number of data accesses
system.cpu_voltage_domain.voltage                   1                       # Voltage in Volts
system.mem_ctrls.pwrStateResidencyTicks::UNDEFINED  52582725500                       # Cumulative time (in ticks) in various power states
system.mem_ctrls.bytes_read::.cpu.inst          40192                       # Number of bytes read from this memory
system.mem_ctrls.bytes_read::.cpu.data          17344                       # Number of bytes read from this memory
system.mem_ctrls.bytes_read::total              57536                       # Number of bytes read from this memory
system.mem_ctrls.bytes_inst_read::.cpu.inst        40192                       # Number of instructions bytes read from this memory
system.mem_ctrls.bytes_inst_read::total         40192                       # Number of instructions bytes read from this memory
system.mem_ctrls.num_reads::.cpu.inst             628                       # Number of read requests responded to by this memory
system.mem_ctrls.num_reads::.cpu.data             271                       # Number of read requests responded to by this memory
system.mem_ctrls.num_reads::total                 899                       # Number of read requests responded to by this memory
system.mem_ctrls.bw_read::.cpu.inst            764357                       # Total read bandwidth from this memory (bytes/s)
system.mem_ctrls.bw_read::.cpu.data            329842                       # Total read bandwidth from this memory (bytes/s)
system.mem_ctrls.bw_read::total               1094200                       # Total read bandwidth from this memory (bytes/s)
system.mem_ctrls.bw_inst_read::.cpu.inst       764357                       # Instruction read bandwidth from this memory (bytes/s)
system.mem_ctrls.bw_inst_read::total           764357                       # Instruction read bandwidth from this memory (bytes/s)
system.mem_ctrls.bw_total::.cpu.inst           764357                       # Total bandwidth to/from this memory (bytes/s)
system.mem_ctrls.bw_total::.cpu.data           329842                       # Total bandwidth to/from this memory (bytes/s)
system.mem_ctrls.bw_total::total              1094200                       # Total bandwidth to/from this memory (bytes/s)
system.mem_ctrls.avgPriority_.cpu.inst::samples       628.00                       # Average QoS priority value for accepted requests
system.mem_ctrls.avgPriority_.cpu.data::samples       271.00                       # Average QoS priority value for accepted requests
system.mem_ctrls.priorityMinLatency      0.000000018750                       # per QoS priority minimum request to response latency (s)
system.mem_ctrls.priorityMaxLatency      0.000000572500                       # per QoS priority maximum request to response latency (s)
system.mem_ctrls.numReadWriteTurnArounds            0                       # Number of turnarounds from READ to WRITE
system.mem_ctrls.numWriteReadTurnArounds            0                       # Number of turnarounds from WRITE to READ
system.mem_ctrls.numStayReadState               15304                       # Number of times bus staying in READ state
system.mem_ctrls.numStayWriteState                  0                       # Number of times bus staying in WRITE state
system.mem_ctrls.readReqs                         899                       # Number of read requests accepted
system.mem_ctrls.writeReqs                          0                       # Number of write requests accepted
system.mem_ctrls.readBursts                       899                       # Number of DRAM read bursts, including those serviced by the write queue
system.mem_ctrls.writeBursts                        0                       # Number of DRAM write bursts, including those merged in the write queue
system.mem_ctrls.servicedByWrQ                      0                       # Number of DRAM read bursts serviced by the write queue
system.mem_ctrls.mergedWrBursts                     0                       # Number of DRAM write bursts merged with an existing one
system.mem_ctrls.neitherReadNorWriteReqs            0                       # Number of requests that are neither read nor write
system.mem_ctrls.perBankRdBursts::0               148                       # Per bank write bursts
system.mem_ctrls.perBankRdBursts::1                80                       # Per bank write bursts
system.mem_ctrls.perBankRdBursts::2                95                       # Per bank write bursts
system.mem_ctrls.perBankRdBursts::3                40                       # Per bank write bursts
system.mem_ctrls.perBankRdBursts::4                 7                       # Per bank write bursts
system.mem_ctrls.perBankRdBursts::5                 6                       # Per bank write bursts
system.mem_ctrls.perBankRdBursts::6                48                       # Per bank write bursts
system.mem_ctrls.perBankRdBursts::7                63                       # Per bank write bursts
system.mem_ctrls.perBankRdBursts::8                24                       # Per bank write bursts
system.mem_ctrls.perBankRdBursts::9                17                       # Per bank write bursts
system.mem_ctrls.perBankRdBursts::10               33                       # Per bank write bursts
system.mem_ctrls.perBankRdBursts::11               57                       # Per bank write bursts
system.mem_ctrls.perBankRdBursts::12               22                       # Per bank write bursts
system.mem_ctrls.perBankRdBursts::13               92                       # Per bank write bursts
system.mem_ctrls.perBankRdBursts::14               87                       # Per bank write bursts
system.mem_ctrls.perBankRdBursts::15               80                       # Per bank write bursts
system.mem_ctrls.perBankWrBursts::0                 0                       # Per bank write bursts
system.mem_ctrls.perBankWrBursts::1                 0                       # Per bank write bursts
system.mem_ctrls.perBankWrBursts::2                 0                       # Per bank write bursts
system.mem_ctrls.perBankWrBursts::3                 0                       # Per bank write bursts
system.mem_ctrls.perBankWrBursts::4                 0                       # Per bank write bursts
system.mem_ctrls.perBankWrBursts::5                 0                       # Per bank write bursts
system.mem_ctrls.perBankWrBursts::6                 0                       # Per bank write bursts
system.mem_ctrls.perBankWrBursts::7                 0                       # Per bank write bursts
system.mem_ctrls.perBankWrBursts::8                 0                       # Per bank write bursts
system.mem_ctrls.perBankWrBursts::9                 0                       # Per bank write bursts
system.mem_ctrls.perBankWrBursts::10                0                       # Per bank write bursts
system.mem_ctrls.perBankWrBursts::11                0                       # Per bank write bursts
system.mem_ctrls.perBankWrBursts::12                0                       # Per bank write bursts
system.mem_ctrls.perBankWrBursts::13                0                       # Per bank write bursts
system.mem_ctrls.perBankWrBursts::14                0                       # Per bank write bursts
system.mem_ctrls.perBankWrBursts::15                0                       # Per bank write bursts
system.mem_ctrls.avgRdQLen                       1.00                       # Average read queue length when enqueuing
system.mem_ctrls.avgWrQLen                       0.00                       # Average write queue length when enqueuing
system.mem_ctrls.totQLat                      5852250                       # Total ticks spent queuing
system.mem_ctrls.totBusLat                    4495000                       # Total ticks spent in databus transfers
system.mem_ctrls.totMemAccLat                22708500                       # Total ticks spent from burst creation until serviced by the DRAM
system.mem_ctrls.avgQLat                      6509.73                       # Average queueing delay per DRAM burst
system.mem_ctrls.avgBusLat                    5000.00                       # Average bus latency per DRAM burst
system.mem_ctrls.avgMemAccLat                25259.73                       # Average memory access latency per DRAM burst
system.mem_ctrls.numRdRetry                         0                       # Number of times read queue was full causing retry
system.mem_ctrls.numWrRetry                         0                       # Number of times write queue was full causing retry
system.mem_ctrls.readRowHits                      689                       # Number of row buffer hits during reads
system.mem_ctrls.writeRowHits                       0                       # Number of row buffer hits during writes
system.mem_ctrls.readRowHitRate                 76.64                       # Row buffer hit rate for reads
system.mem_ctrls.writeRowHitRate                  nan                       # Row buffer hit rate for writes
system.mem_ctrls.readPktSize::0                     0                       # Read request sizes (log2)
system.mem_ctrls.readPktSize::1                     0                       # Read request sizes (log2)
system.mem_ctrls.readPktSize::2                     0                       # Read request sizes (log2)
system.mem_ctrls.readPktSize::3                     0                       # Read request sizes (log2)
system.mem_ctrls.readPktSize::4                     0                       # Read request sizes (log2)
system.mem_ctrls.readPktSize::5                     0                       # Read request sizes (log2)
system.mem_ctrls.readPktSize::6                   899                       # Read request sizes (log2)
system.mem_ctrls.writePktSize::0                    0                       # Write request sizes (log2)
system.mem_ctrls.writePktSize::1                    0                       # Write request sizes (log2)
system.mem_ctrls.writePktSize::2                    0                       # Write request sizes (log2)
system.mem_ctrls.writePktSize::3                    0                       # Write request sizes (log2)
system.mem_ctrls.writePktSize::4                    0                       # Write request sizes (log2)
system.mem_ctrls.writePktSize::5                    0                       # Write request sizes (log2)
system.mem_ctrls.writePktSize::6                    0                       # Write request sizes (log2)
system.mem_ctrls.rdQLenPdf::0                     899                       # What read queue length does an incoming req see
system.mem_ctrls.rdQLenPdf::1                       0                       # What read queue length does an incoming req see
system.mem_ctrls.rdQLenPdf::2                       0                       # What read queue length does an incoming req see
system.mem_ctrls.rdQLenPdf::3                       0                       # What read queue length does an incoming req see
system.mem_ctrls.rdQLenPdf::4                       0                       # What read queue length does an incoming req see
system.mem_ctrls.rdQLenPdf::5                       0                       # What read queue length does an incoming req see
system.mem_ctrls.rdQLenPdf::6                       0                       # What read queue length does an incoming req see
system.mem_ctrls.rdQLenPdf::7                       0                       # What read queue length does an incoming req see
system.mem_ctrls.rdQLenPdf::8                       0                       # What read queue length does an incoming req see
system.mem_ctrls.rdQLenPdf::9                       0                       # What read queue length does an incoming req see
system.mem_ctrls.rdQLenPdf::10                      0                       # What read queue length does an incoming req see
system.mem_ctrls.rdQLenPdf::11                      0                       # What read queue length does an incoming req see
system.mem_ctrls.rdQLenPdf::12                      0                       # What read queue length does an incoming req see
system.mem_ctrls.rdQLenPdf::13                      0                       # What read queue length does an incoming req see
system.mem_ctrls.rdQLenPdf::14                      0                       # What read queue length does an incoming req see
system.mem_ctrls.rdQLenPdf::15                      0                       # What read queue length does an incoming req see
system.mem_ctrls.rdQLenPdf::16                      0                       # What read queue length does an incoming req see
system.mem_ctrls.rdQLenPdf::17                      0                       # What read queue length does an incoming req see
system.mem_ctrls.rdQLenPdf::18                      0                       # What read queue length does an incoming req see
system.mem_ctrls.rdQLenPdf::19                      0                       # What read queue length does an incoming req see
system.mem_ctrls.rdQLenPdf::20                      0                       # What read queue length does an incoming req see
system.mem_ctrls.rdQLenPdf::21                      0                       # What read queue length does an incoming req see
system.mem_ctrls.rdQLenPdf::22                      0                       # What read queue length does an incoming req see
system.mem_ctrls.rdQLenPdf::23                      0                       # What read queue length does an incoming req see
system.mem_ctrls.rdQLenPdf::24                      0                       # What read queue length does an incoming req see
system.mem_ctrls.rdQLenPdf::25                      0                       # What read queue length does an incoming req see
system.mem_ctrls.rdQLenPdf::26                      0                       # What read queue length does an incoming req see
system.mem_ctrls.rdQLenPdf::27                      0                       # What read queue length does an incoming req see
system.mem_ctrls.rdQLenPdf::28                      0                       # What read queue length does an incoming req see
system.mem_ctrls.rdQLenPdf::29                      0                       # What read queue length does an incoming req see
system.mem_ctrls.rdQLenPdf::30                      0                       # What read queue length does an incoming req see
system.mem_ctrls.rdQLenPdf::31                      0                       # What read queue length does an incoming req see
system.mem_ctrls.wrQLenPdf::0                       0                       # What write queue length does an incoming req see
system.mem_ctrls.wrQLenPdf::1                       0                       # What write queue length does an incoming req see
system.mem_ctrls.wrQLenPdf::2                       0                       # What write queue length does an incoming req see
system.mem_ctrls.wrQLenPdf::3                       0                       # What write queue length does an incoming req see
system.mem_ctrls.wrQLenPdf::4                       0                       # What write queue length does an incoming req see
system.mem_ctrls.wrQLenPdf::5                       0                       # What write queue length does an incoming req see
system.mem_ctrls.wrQLenPdf::6                       0                       # What write queue length does an incoming req see
system.mem_ctrls.wrQLenPdf::7                       0                       # What write queue length does an incoming req see
system.mem_ctrls.wrQLenPdf::8                       0                       # What write queue length does an incoming req see
system.mem_ctrls.wrQLenPdf::9                       0                       # What write queue length does an incoming req see
system.mem_ctrls.wrQLenPdf::10                      0                       # What write queue length does an incoming req see
system.mem_ctrls.wrQLenPdf::11                      0                       # What write queue length does an incoming req see
system.mem_ctrls.wrQLenPdf::12                      0                       # What write queue length does an incoming req see
system.mem_ctrls.wrQLenPdf::13                      0                       # What write queue length does an incoming req see
system.mem_ctrls.wrQLenPdf::14                      0                       # What write queue length does an incoming req see
system.mem_ctrls.wrQLenPdf::15                      0                       # What write queue length does an incoming req see
system.mem_ctrls.wrQLenPdf::16                      0                       # What write queue length does an incoming req see
system.mem_ctrls.wrQLenPdf::17                      0                       # What write queue length does an incoming req see
system.mem_ctrls.wrQLenPdf::18                      0                       # What write queue length does an incoming req see
system.mem_ctrls.wrQLenPdf::19                      0                       # What write queue length does an incoming req see
system.mem_ctrls.wrQLenPdf::20                      0                       # What write queue length does an incoming req see
system.mem_ctrls.wrQLenPdf::21                      0                       # What write queue length does an incoming req see
system.mem_ctrls.wrQLenPdf::22                      0                       # What write queue length does an incoming req see
system.mem_ctrls.wrQLenPdf::23                      0                       # What write queue length does an incoming req see
system.mem_ctrls.wrQLenPdf::24                      0                       # What write queue length does an incoming req see
system.mem_ctrls.wrQLenPdf::25                      0                       # What write queue length does an incoming req see
system.mem_ctrls.wrQLenPdf::26                      0                       # What write queue length does an incoming req see
system.mem_ctrls.wrQLenPdf::27                      0                       # What write queue length does an incoming req see
system.mem_ctrls.wrQLenPdf::28                      0                       # What write queue length does an incoming req see
system.mem_ctrls.wrQLenPdf::29                      0                       # What write queue length does an incoming req see
system.mem_ctrls.wrQLenPdf::30                      0                       # What write queue length does an incoming req see
system.mem_ctrls.wrQLenPdf::31                      0                       # What write queue length does an incoming req see
system.mem_ctrls.wrQLenPdf::32                      0                       # What write queue length does an incoming req see
system.mem_ctrls.wrQLenPdf::33                      0                       # What write queue length does an incoming req see
system.mem_ctrls.wrQLenPdf::34                      0                       # What write queue length does an incoming req see
system.mem_ctrls.wrQLenPdf::35                      0                       # What write queue length does an incoming req see
system.mem_ctrls.wrQLenPdf::36                      0                       # What write queue length does an incoming req see
system.mem_ctrls.wrQLenPdf::37                      0                       # What write queue length does an incoming req see
system.mem_ctrls.wrQLenPdf::38                      0                       # What write queue length does an incoming req see
system.mem_ctrls.wrQLenPdf::39                      0                       # What write queue length does an incoming req see
system.mem_ctrls.wrQLenPdf::40                      0                       # What write queue length does an incoming req see
system.mem_ctrls.wrQLenPdf::41                      0                       # What write queue length does an incoming req see
system.mem_ctrls.wrQLenPdf::42                      0                       # What write queue length does an incoming req see
system.mem_ctrls.wrQLenPdf::43                      0                       # What write queue length does an incoming req see
system.mem_ctrls.wrQLenPdf::44                      0                       # What write queue length does an incoming req see
system.mem_ctrls.wrQLenPdf::45                      0                       # What write queue length does an incoming req see
system.mem_ctrls.wrQLenPdf::46                      0                       # What write queue length does an incoming req see
system.mem_ctrls.wrQLenPdf::47                      0                       # What write queue length does an incoming req see
system.mem_ctrls.wrQLenPdf::48                      0                       # What write queue length does an incoming req see
system.mem_ctrls.wrQLenPdf::49                      0                       # What write queue length does an incoming req see
system.mem_ctrls.wrQLenPdf::50                      0                       # What write queue length does an incoming req see
system.mem_ctrls.wrQLenPdf::51                      0                       # What write queue length does an incoming req see
system.mem_ctrls.wrQLenPdf::52                      0                       # What write queue length does an incoming req see
system.mem_ctrls.wrQLenPdf::53                      0                       # What write queue length does an incoming req see
system.mem_ctrls.wrQLenPdf::54                      0                       # What write queue length does an incoming req see
system.mem_ctrls.wrQLenPdf::55                      0                       # What write queue length does an incoming req see
system.mem_ctrls.wrQLenPdf::56                      0                       # What write queue length does an incoming req see
system.mem_ctrls.wrQLenPdf::57                      0                       # What write queue length does an incoming req see
system.mem_ctrls.wrQLenPdf::58                      0                       # What write queue length does an incoming req see
system.mem_ctrls.wrQLenPdf::59                      0                       # What write queue length does an incoming req see
system.mem_ctrls.wrQLenPdf::60                      0                       # What write queue length does an incoming req see
system.mem_ctrls.wrQLenPdf::61                      0                       # What write queue length does an incoming req see
system.mem_ctrls.wrQLenPdf::62                      0                       # What write queue length does an incoming req see
system.mem_ctrls.wrQLenPdf::63                      0                       # What write queue length does an incoming req see
system.mem_ctrls.bytesPerActivate::samples          206                       # Bytes accessed per row activation
system.mem_ctrls.bytesPerActivate::mean    277.747573                       # Bytes accessed per row activation
system.mem_ctrls.bytesPerActivate::gmean   177.524768                       # Bytes accessed per row activation
system.mem_ctrls.bytesPerActivate::stdev   279.513819                       # Bytes accessed per row activation
system.mem_ctrls.bytesPerActivate::0-127           67     32.52%     32.52% # Bytes accessed per row activation
system.mem_ctrls.bytesPerActivate::128-255           65     31.55%     64.08% # Bytes accessed per row activation
system.mem_ctrls.bytesPerActivate::256-383           18      8.74%     72.82% # Bytes accessed per row activation
system.mem_ctrls.bytesPerActivate::384-511           16      7.77%     80.58% # Bytes accessed per row activation
system.mem_ctrls.bytesPerActivate::512-639            9      4.37%     84.95% # Bytes accessed per row activation
system.mem_ctrls.bytesPerActivate::640-767            9      4.37%     89.32% # Bytes accessed per row activation
system.mem_ctrls.bytesPerActivate::768-895            8      3.88%     93.20% # Bytes accessed per row activation
system.mem_ctrls.bytesPerActivate::896-1023            4      1.94%     95.15% # Bytes accessed per row activation
system.mem_ctrls.bytesPerActivate::1024-1151           10      4.85%    100.00% # Bytes accessed per row activation
system.mem_ctrls.bytesPerActivate::total          206                       # Bytes accessed per row activation
system.mem_ctrls.bytesReadDRAM                  57536                       # Total number of bytes read from DRAM
system.mem_ctrls.bytesReadWrQ                       0                       # Total number of bytes read from write queue
system.mem_ctrls.bytesWritten                       0                       # Total number of bytes written to DRAM
system.mem_ctrls.bytesReadSys                   57536                       # Total read bytes from the system interface side
system.mem_ctrls.bytesWrittenSys                    0                       # Total written bytes from the system interface side
system.mem_ctrls.avgRdBW                         1.09                       # Average DRAM read bandwidth in MiByte/s
system.mem_ctrls.avgWrBW                         0.00                       # Average achieved write bandwidth in MiByte/s
system.mem_ctrls.avgRdBWSys                      1.09                       # Average system read bandwidth in MiByte/s
system.mem_ctrls.avgWrBWSys                      0.00                       # Average system write bandwidth in MiByte/s
system.mem_ctrls.peakBW                      12800.00                       # Theoretical peak bandwidth in MiByte/s
system.mem_ctrls.busUtil                         0.01                       # Data bus utilization in percentage
system.mem_ctrls.busUtilRead                     0.01                       # Data bus utilization in percentage for reads
system.mem_ctrls.busUtilWrite                    0.00                       # Data bus utilization in percentage for writes
system.mem_ctrls.totGap                   52582629500                       # Total gap between requests
system.mem_ctrls.avgGap                   58490132.93                       # Average gap between requests
system.mem_ctrls.masterReadBytes::.cpu.inst        40192                       # Per-master bytes read from memory
system.mem_ctrls.masterReadBytes::.cpu.data        17344                       # Per-master bytes read from memory
system.mem_ctrls.masterReadRate::.cpu.inst 764357.488468337455                       # Per-master bytes read from memory rate (Bytes/sec)
system.mem_ctrls.masterReadRate::.cpu.data 329842.164609744330                       # Per-master bytes read from memory rate (Bytes/sec)
system.mem_ctrls.masterReadAccesses::.cpu.inst          628                       # Per-master read serviced memory accesses
system.mem_ctrls.masterReadAccesses::.cpu.data          271                       # Per-master read serviced memory accesses
system.mem_ctrls.masterReadTotalLat::.cpu.inst     15584750                       # Per-master read total memory access latency
system.mem_ctrls.masterReadTotalLat::.cpu.data      7123750                       # Per-master read total memory access latency
system.mem_ctrls.masterReadAvgLat::.cpu.inst     24816.48                       # Per-master read average memory access latency
system.mem_ctrls.masterReadAvgLat::.cpu.data     26286.90                       # Per-master read average memory access latency
system.mem_ctrls.pageHitRate                    76.64                       # Row buffer hit rate, read and write combined
system.mem_ctrls.rank1.actEnergy               763980                       # Energy for activate commands per rank (pJ)
system.mem_ctrls.rank1.preEnergy               394680                       # Energy for precharge commands per rank (pJ)
system.mem_ctrls.rank1.readEnergy             2941680                       # Energy for read commands per rank (pJ)
system.mem_ctrls.rank1.writeEnergy                  0                       # Energy for write commands per rank (pJ)
system.mem_ctrls.rank1.refreshEnergy     4150663920.000000                       # Energy for refresh commands per rank (pJ)
system.mem_ctrls.rank1.actBackEnergy        808096980                       # Energy for active background per rank (pJ)
system.mem_ctrls.rank1.preBackEnergy      19511264160                       # Energy for precharge background per rank (pJ)
system.mem_ctrls.rank1.actPowerDownEnergy            0                       # Energy for active power-down per rank (pJ)
system.mem_ctrls.rank1.prePowerDownEnergy            0                       # Energy for precharge power-down per rank (pJ)
system.mem_ctrls.rank1.selfRefreshEnergy            0                       # Energy for self refresh per rank (pJ)
system.mem_ctrls.rank1.totalEnergy        24474125400                       # Total energy per rank (pJ)
system.mem_ctrls.rank1.averagePower        465.440412                       # Core power per rank (mW)
system.mem_ctrls.rank1.totalIdleTime                0                       # Total Idle time Per DRAM Rank
system.mem_ctrls.rank1.memoryStateTime::IDLE  50717445750                       # Time in different power states
system.mem_ctrls.rank1.memoryStateTime::REF   1755780000                       # Time in different power states
system.mem_ctrls.rank1.memoryStateTime::SREF            0                       # Time in different power states
system.mem_ctrls.rank1.memoryStateTime::PRE_PDN            0                       # Time in different power states
system.mem_ctrls.rank1.memoryStateTime::ACT    109499750                       # Time in different power states
system.mem_ctrls.rank1.memoryStateTime::ACT_PDN            0                       # Time in different power states
system.mem_ctrls.rank0.actEnergy               735420                       # Energy for activate commands per rank (pJ)
system.mem_ctrls.rank0.preEnergy               387090                       # Energy for precharge commands per rank (pJ)
system.mem_ctrls.rank0.readEnergy             3477180                       # Energy for read commands per rank (pJ)
system.mem_ctrls.rank0.writeEnergy                  0                       # Energy for write commands per rank (pJ)
system.mem_ctrls.rank0.refreshEnergy     4150663920.000000                       # Energy for refresh commands per rank (pJ)
system.mem_ctrls.rank0.actBackEnergy        811972410                       # Energy for active background per rank (pJ)
system.mem_ctrls.rank0.preBackEnergy      19508000640                       # Energy for precharge background per rank (pJ)
system.mem_ctrls.rank0.actPowerDownEnergy            0                       # Energy for active power-down per rank (pJ)
system.mem_ctrls.rank0.prePowerDownEnergy            0                       # Energy for precharge power-down per rank (pJ)
system.mem_ctrls.rank0.selfRefreshEnergy            0                       # Energy for self refresh per rank (pJ)
system.mem_ctrls.rank0.totalEnergy        24475236660                       # Total energy per rank (pJ)
system.mem_ctrls.rank0.averagePower        465.461545                       # Core power per rank (mW)
system.mem_ctrls.rank0.totalIdleTime                0                       # Total Idle time Per DRAM Rank
system.mem_ctrls.rank0.memoryStateTime::IDLE  50708963000                       # Time in different power states
system.mem_ctrls.rank0.memoryStateTime::REF   1755780000                       # Time in different power states
system.mem_ctrls.rank0.memoryStateTime::SREF            0                       # Time in different power states
system.mem_ctrls.rank0.memoryStateTime::PRE_PDN            0                       # Time in different power states
system.mem_ctrls.rank0.memoryStateTime::ACT    117982500                       # Time in different power states
system.mem_ctrls.rank0.memoryStateTime::ACT_PDN            0                       # Time in different power states
system.cpu_clk_domain.clock                       500                       # Clock period in ticks
system.cpu.numPwrStateTransitions                   1                       # Number of power state transitions
system.cpu.pwrStateResidencyTicks::ON     52582725500                       # Cumulative time (in ticks) in various power states
system.cpu.icache.pwrStateResidencyTicks::UNDEFINED  52582725500                       # Cumulative time (in ticks) in various power states
system.cpu.icache.demand_hits::.cpu.inst     49648271                       # number of demand (read+write) hits
system.cpu.icache.demand_hits::total         49648271                       # number of demand (read+write) hits
system.cpu.icache.overall_hits::.cpu.inst     49648271                       # number of overall hits
system.cpu.icache.overall_hits::total        49648271                       # number of overall hits
system.cpu.icache.demand_misses::.cpu.inst          693                       # number of demand (read+write) misses
system.cpu.icache.demand_misses::total            693                       # number of demand (read+write) misses
system.cpu.icache.overall_misses::.cpu.inst          693                       # number of overall misses
system.cpu.icache.overall_misses::total           693                       # number of overall misses
system.cpu.icache.demand_miss_latency::.cpu.inst     49922500                       # number of demand (read+write) miss cycles
system.cpu.icache.demand_miss_latency::total     49922500                       # number of demand (read+write) miss cycles
system.cpu.icache.overall_miss_latency::.cpu.inst     49922500                       # number of overall miss cycles
system.cpu.icache.overall_miss_latency::total     49922500                       # number of overall miss cycles
system.cpu.icache.demand_accesses::.cpu.inst     49648964                       # number of demand (read+write) accesses
system.cpu.icache.demand_accesses::total     49648964                       # number of demand (read+write) accesses
system.cpu.icache.overall_accesses::.cpu.inst     49648964                       # number of overall (read+write) accesses
system.cpu.icache.overall_accesses::total     49648964                       # number of overall (read+write) accesses
system.cpu.icache.demand_miss_rate::.cpu.inst     0.000014                       # miss rate for demand accesses
system.cpu.icache.demand_miss_rate::total     0.000014                       # miss rate for demand accesses
system.cpu.icache.overall_miss_rate::.cpu.inst     0.000014                       # miss rate for overall accesses
system.cpu.icache.overall_miss_rate::total     0.000014                       # miss rate for overall accesses
system.cpu.icache.demand_avg_miss_latency::.cpu.inst 72038.239538                       # average overall miss latency
system.cpu.icache.demand_avg_miss_latency::total 72038.239538                       # average overall miss latency
system.cpu.icache.overall_avg_miss_latency::.cpu.inst 72038.239538                       # average overall miss latency
system.cpu.icache.overall_avg_miss_latency::total 72038.239538                       # average overall miss latency
system.cpu.icache.blocked_cycles::no_mshrs            0                       # number of cycles access was blocked
system.cpu.icache.blocked_cycles::no_targets            0                       # number of cycles access was blocked
system.cpu.icache.blocked::no_mshrs                 0                       # number of cycles access was blocked
system.cpu.icache.blocked::no_targets               0                       # number of cycles access was blocked
system.cpu.icache.avg_blocked_cycles::no_mshrs          nan                       # average number of cycles each access was blocked
system.cpu.icache.avg_blocked_cycles::no_targets          nan                       # average number of cycles each access was blocked
system.cpu.icache.writebacks::.writebacks          219                       # number of writebacks
system.cpu.icache.writebacks::total               219                       # number of writebacks
system.cpu.icache.demand_mshr_misses::.cpu.inst          693                       # number of demand (read+write) MSHR misses
system.cpu.icache.demand_mshr_misses::total          693                       # number of demand (read+write) MSHR misses
system.cpu.icache.overall_mshr_misses::.cpu.inst          693                       # number of overall MSHR misses
system.cpu.icache.overall_mshr_misses::total          693                       # number of overall MSHR misses
system.cpu.icache.demand_mshr_miss_latency::.cpu.inst     49229500                       # number of demand (read+write) MSHR miss cycles
system.cpu.icache.demand_mshr_miss_latency::total     49229500                       # number of demand (read+write) MSHR miss cycles
system.cpu.icache.overall_mshr_miss_latency::.cpu.inst     49229500                       # number of overall MSHR miss cycles
system.cpu.icache.overall_mshr_miss_latency::total     49229500                       # number of overall MSHR miss cycles
system.cpu.icache.demand_mshr_miss_rate::.cpu.inst     0.000014                       # mshr miss rate for demand accesses
system.cpu.icache.demand_mshr_miss_rate::total     0.000014                       # mshr miss rate for demand accesses
system.cpu.icache.overall_mshr_miss_rate::.cpu.inst     0.000014                       # mshr miss rate for overall accesses
system.cpu.icache.overall_mshr_miss_rate::total     0.000014                       # mshr miss rate for overall accesses
system.cpu.icache.demand_avg_mshr_miss_latency::.cpu.inst 71038.239538                       # average overall mshr miss latency
system.cpu.icache.demand_avg_mshr_miss_latency::total 71038.239538                       # average overall mshr miss latency
system.cpu.icache.overall_avg_mshr_miss_latency::.cpu.inst 71038.239538                       # average overall mshr miss latency
system.cpu.icache.overall_avg_mshr_miss_latency::total 71038.239538                       # average overall mshr miss latency
system.cpu.icache.replacements                    219                       # number of replacements
system.cpu.icache.ReadReq_hits::.cpu.inst     49648271                       # number of ReadReq hits
system.cpu.icache.ReadReq_hits::total        49648271                       # number of ReadReq hits
system.cpu.icache.ReadReq_misses::.cpu.inst          693                       # number of ReadReq misses
system.cpu.icache.ReadReq_misses::total           693                       # number of ReadReq misses
system.cpu.icache.ReadReq_miss_latency::.cpu.inst     49922500                       # number of ReadReq miss cycles
system.cpu.icache.ReadReq_miss_latency::total     49922500                       # number of ReadReq miss cycles
system.cpu.icache.ReadReq_accesses::.cpu.inst     49648964                       # number of ReadReq accesses(hits+misses)
system.cpu.icache.ReadReq_accesses::total     49648964                       # number of ReadReq accesses(hits+misses)
system.cpu.icache.ReadReq_miss_rate::.cpu.inst     0.000014                       # miss rate for ReadReq accesses
system.cpu.icache.ReadReq_miss_rate::total     0.000014                       # miss rate for ReadReq accesses
system.cpu.icache.ReadReq_avg_miss_latency::.cpu.inst 72038.239538                       # average ReadReq miss latency
system.cpu.icache.ReadReq_avg_miss_latency::total 72038.239538                       # average ReadReq miss latency
system.cpu.icache.ReadReq_mshr_misses::.cpu.inst          693                       # number of ReadReq MSHR misses
system.cpu.icache.ReadReq_mshr_misses::total          693                       # number of ReadReq MSHR misses
system.cpu.icache.ReadReq_mshr_miss_latency::.cpu.inst     49229500                       # number of ReadReq MSHR miss cycles
system.cpu.icache.ReadReq_mshr_miss_latency::total     49229500                       # number of ReadReq MSHR miss cycles
system.cpu.icache.ReadReq_mshr_miss_rate::.cpu.inst     0.000014                       # mshr miss rate for ReadReq accesses
system.cpu.icache.ReadReq_mshr_miss_rate::total     0.000014                       # mshr miss rate for ReadReq accesses
system.cpu.icache.ReadReq_avg_mshr_miss_latency::.cpu.inst 71038.239538                       # average ReadReq mshr miss latency
system.cpu.icache.ReadReq_avg_mshr_miss_latency::total 71038.239538                       # average ReadReq mshr miss latency
system.cpu.icache.tags.pwrStateResidencyTicks::UNDEFINED  52582725500                       # Cumulative time (in ticks) in various power states
system.cpu.icache.tags.tagsinuse           441.411286                       # Cycle average of tags in use
system.cpu.icache.tags.total_refs            49648964                       # Total number of references to valid blocks.
system.cpu.icache.tags.sampled_refs               693                       # Sample count of references to valid blocks.
system.cpu.icache.tags.avg_refs          71643.526696                       # Average number of references to valid blocks.
system.cpu.icache.tags.warmup_cycle             87500                       # Cycle when the warmup percentage was hit.
system.cpu.icache.tags.occ_blocks::.cpu.inst   441.411286                       # Average occupied blocks per requestor
system.cpu.icache.tags.occ_percent::.cpu.inst     0.862131                       # Average percentage of cache occupancy
system.cpu.icache.tags.occ_percent::total     0.862131                       # Average percentage of cache occupancy
system.cpu.icache.tags.occ_task_id_blocks::1024          474                       # Occupied blocks per task id
system.cpu.icache.tags.age_task_id_blocks_1024::0           55                       # Occupied blocks per task id
system.cpu.icache.tags.age_task_id_blocks_1024::1            5                       # Occupied blocks per task id
system.cpu.icache.tags.age_task_id_blocks_1024::4          414                       # Occupied blocks per task id
system.cpu.icache.tags.occ_task_id_percent::1024     0.925781                       # Percentage of cache occupancy per task id
system.cpu.icache.tags.tag_accesses         198596549                       # Number of tag accesses
system.cpu.icache.tags.data_accesses        198596549                       # Number of data accesses
system.cpu.dtb.walker.pwrStateResidencyTicks::UNDEFINED  52582725500                       # Cumulative time (in ticks) in various power states
system.cpu.interrupts.pwrStateResidencyTicks::UNDEFINED  52582725500                       # Cumulative time (in ticks) in various power states
system.cpu.interrupts.clk_domain.clock           8000                       # Clock period in ticks
system.cpu.itb_walker_cache.pwrStateResidencyTicks::UNDEFINED  52582725500                       # Cumulative time (in ticks) in various power states
system.cpu.itb_walker_cache.blocked_cycles::no_mshrs            0                       # number of cycles access was blocked
system.cpu.itb_walker_cache.blocked_cycles::no_targets            0                       # number of cycles access was blocked
system.cpu.itb_walker_cache.blocked::no_mshrs            0                       # number of cycles access was blocked
system.cpu.itb_walker_cache.blocked::no_targets            0                       # number of cycles access was blocked
system.cpu.itb_walker_cache.avg_blocked_cycles::no_mshrs          nan                       # average number of cycles each access was blocked
system.cpu.itb_walker_cache.avg_blocked_cycles::no_targets          nan                       # average number of cycles each access was blocked
system.cpu.itb_walker_cache.replacements            0                       # number of replacements
system.cpu.itb_walker_cache.tags.pwrStateResidencyTicks::UNDEFINED  52582725500                       # Cumulative time (in ticks) in various power states
system.cpu.itb_walker_cache.tags.tagsinuse            0                       # Cycle average of tags in use
system.cpu.itb_walker_cache.tags.total_refs            0                       # Total number of references to valid blocks.
system.cpu.itb_walker_cache.tags.sampled_refs            0                       # Sample count of references to valid blocks.
system.cpu.itb_walker_cache.tags.avg_refs          nan                       # Average number of references to valid blocks.
system.cpu.itb_walker_cache.tags.warmup_cycle            0                       # Cycle when the warmup percentage was hit.
system.cpu.itb_walker_cache.tags.tag_accesses            0                       # Number of tag accesses
system.cpu.itb_walker_cache.tags.data_accesses            0                       # Number of data accesses
system.cpu.itb.walker.pwrStateResidencyTicks::UNDEFINED  52582725500                       # Cumulative time (in ticks) in various power states
system.cpu.dtb_walker_cache.pwrStateResidencyTicks::UNDEFINED  52582725500                       # Cumulative time (in ticks) in various power states
system.cpu.dtb_walker_cache.blocked_cycles::no_mshrs            0                       # number of cycles access was blocked
system.cpu.dtb_walker_cache.blocked_cycles::no_targets            0                       # number of cycles access was blocked
system.cpu.dtb_walker_cache.blocked::no_mshrs            0                       # number of cycles access was blocked
system.cpu.dtb_walker_cache.blocked::no_targets            0                       # number of cycles access was blocked
system.cpu.dtb_walker_cache.avg_blocked_cycles::no_mshrs          nan                       # average number of cycles each access was blocked
system.cpu.dtb_walker_cache.avg_blocked_cycles::no_targets          nan                       # average number of cycles each access was blocked
system.cpu.dtb_walker_cache.replacements            0                       # number of replacements
system.cpu.dtb_walker_cache.tags.pwrStateResidencyTicks::UNDEFINED  52582725500                       # Cumulative time (in ticks) in various power states
system.cpu.dtb_walker_cache.tags.tagsinuse            0                       # Cycle average of tags in use
system.cpu.dtb_walker_cache.tags.total_refs            0                       # Total number of references to valid blocks.
system.cpu.dtb_walker_cache.tags.sampled_refs            0                       # Sample count of references to valid blocks.
system.cpu.dtb_walker_cache.tags.avg_refs          nan                       # Average number of references to valid blocks.
system.cpu.dtb_walker_cache.tags.warmup_cycle            0                       # Cycle when the warmup percentage was hit.
system.cpu.dtb_walker_cache.tags.tag_accesses            0                       # Number of tag accesses
system.cpu.dtb_walker_cache.tags.data_accesses            0                       # Number of data accesses
system.cpu.dcache.pwrStateResidencyTicks::UNDEFINED  52582725500                       # Cumulative time (in ticks) in various power states
system.cpu.dcache.demand_hits::.cpu.data      2862973                       # number of demand (read+write) hits
system.cpu.dcache.demand_hits::total          2862973                       # number of demand (read+write) hits
system.cpu.dcache.overall_hits::.cpu.data      2862973                       # number of overall hits
system.cpu.dcache.overall_hits::total         2862973                       # number of overall hits
system.cpu.dcache.demand_misses::.cpu.data          271                       # number of demand (read+write) misses
system.cpu.dcache.demand_misses::total            271                       # number of demand (read+write) misses
system.cpu.dcache.overall_misses::.cpu.data          271                       # number of overall misses
system.cpu.dcache.overall_misses::total           271                       # number of overall misses
system.cpu.dcache.demand_miss_latency::.cpu.data     21579500                       # number of demand (read+write) miss cycles
system.cpu.dcache.demand_miss_latency::total     21579500                       # number of demand (read+write) miss cycles
system.cpu.dcache.overall_miss_latency::.cpu.data     21579500                       # number of overall miss cycles
system.cpu.dcache.overall_miss_latency::total     21579500                       # number of overall miss cycles
system.cpu.dcache.demand_accesses::.cpu.data      2863244                       # number of demand (read+write) accesses
system.cpu.dcache.demand_accesses::total      2863244                       # number of demand (read+write) accesses
system.cpu.dcache.overall_accesses::.cpu.data      2863244                       # number of overall (read+write) accesses
system.cpu.dcache.overall_accesses::total      2863244                       # number of overall (read+write) accesses
system.cpu.dcache.demand_miss_rate::.cpu.data     0.000095                       # miss rate for demand accesses
system.cpu.dcache.demand_miss_rate::total     0.000095                       # miss rate for demand accesses
system.cpu.dcache.overall_miss_rate::.cpu.data     0.000095                       # miss rate for overall accesses
system.cpu.dcache.overall_miss_rate::total     0.000095                       # miss rate for overall accesses
system.cpu.dcache.demand_avg_miss_latency::.cpu.data 79629.151292                       # average overall miss latency
system.cpu.dcache.demand_avg_miss_latency::total 79629.151292                       # average overall miss latency
system.cpu.dcache.overall_avg_miss_latency::.cpu.data 79629.151292                       # average overall miss latency
system.cpu.dcache.overall_avg_miss_latency::total 79629.151292                       # average overall miss latency
system.cpu.dcache.blocked_cycles::no_mshrs            0                       # number of cycles access was blocked
system.cpu.dcache.blocked_cycles::no_targets            0                       # number of cycles access was blocked
system.cpu.dcache.blocked::no_mshrs                 0                       # number of cycles access was blocked
system.cpu.dcache.blocked::no_targets               0                       # number of cycles access was blocked
system.cpu.dcache.avg_blocked_cycles::no_mshrs          nan                       # average number of cycles each access was blocked
system.cpu.dcache.avg_blocked_cycles::no_targets          nan                       # average number of cycles each access was blocked
system.cpu.dcache.demand_mshr_misses::.cpu.data          271                       # number of demand (read+write) MSHR misses
system.cpu.dcache.demand_mshr_misses::total          271                       # number of demand (read+write) MSHR misses
system.cpu.dcache.overall_mshr_misses::.cpu.data          271                       # number of overall MSHR misses
system.cpu.dcache.overall_mshr_misses::total          271                       # number of overall MSHR misses
system.cpu.dcache.demand_mshr_miss_latency::.cpu.data     21308500                       # number of demand (read+write) MSHR miss cycles
system.cpu.dcache.demand_mshr_miss_latency::total     21308500                       # number of demand (read+write) MSHR miss cycles
system.cpu.dcache.overall_mshr_miss_latency::.cpu.data     21308500                       # number of overall MSHR miss cycles
system.cpu.dcache.overall_mshr_miss_latency::total     21308500                       # number of overall MSHR miss cycles
system.cpu.dcache.demand_mshr_miss_rate::.cpu.data     0.000095                       # mshr miss rate for demand accesses
system.cpu.dcache.demand_mshr_miss_rate::total     0.000095                       # mshr miss rate for demand accesses
system.cpu.dcache.overall_mshr_miss_rate::.cpu.data     0.000095                       # mshr miss rate for overall accesses
system.cpu.dcache.overall_mshr_miss_rate::total     0.000095                       # mshr miss rate for overall accesses
system.cpu.dcache.demand_avg_mshr_miss_latency::.cpu.data 78629.151292                       # average overall mshr miss latency
system.cpu.dcache.demand_avg_mshr_miss_latency::total 78629.151292                       # average overall mshr miss latency
system.cpu.dcache.overall_avg_mshr_miss_latency::.cpu.data 78629.151292                       # average overall mshr miss latency
system.cpu.dcache.overall_avg_mshr_miss_latency::total 78629.151292                       # average overall mshr miss latency
system.cpu.dcache.replacements                      2                       # number of replacements
system.cpu.dcache.ReadReq_hits::.cpu.data      2332841                       # number of ReadReq hits
system.cpu.dcache.ReadReq_hits::total         2332841                       # number of ReadReq hits
system.cpu.dcache.ReadReq_misses::.cpu.data          141                       # number of ReadReq misses
system.cpu.dcache.ReadReq_misses::total           141                       # number of ReadReq misses
system.cpu.dcache.ReadReq_miss_latency::.cpu.data     11552000                       # number of ReadReq miss cycles
system.cpu.dcache.ReadReq_miss_latency::total     11552000                       # number of ReadReq miss cycles
system.cpu.dcache.ReadReq_accesses::.cpu.data      2332982                       # number of ReadReq accesses(hits+misses)
system.cpu.dcache.ReadReq_accesses::total      2332982                       # number of ReadReq accesses(hits+misses)
system.cpu.dcache.ReadReq_miss_rate::.cpu.data     0.000060                       # miss rate for ReadReq accesses
system.cpu.dcache.ReadReq_miss_rate::total     0.000060                       # miss rate for ReadReq accesses
system.cpu.dcache.ReadReq_avg_miss_latency::.cpu.data 81929.078014                       # average ReadReq miss latency
system.cpu.dcache.ReadReq_avg_miss_latency::total 81929.078014                       # average ReadReq miss latency
system.cpu.dcache.ReadReq_mshr_misses::.cpu.data          141                       # number of ReadReq MSHR misses
system.cpu.dcache.ReadReq_mshr_misses::total          141                       # number of ReadReq MSHR misses
system.cpu.dcache.ReadReq_mshr_miss_latency::.cpu.data     11411000                       # number of ReadReq MSHR miss cycles
system.cpu.dcache.ReadReq_mshr_miss_latency::total     11411000                       # number of ReadReq MSHR miss cycles
system.cpu.dcache.ReadReq_mshr_miss_rate::.cpu.data     0.000060                       # mshr miss rate for ReadReq accesses
system.cpu.dcache.ReadReq_mshr_miss_rate::total     0.000060                       # mshr miss rate for ReadReq accesses
system.cpu.dcache.ReadReq_avg_mshr_miss_latency::.cpu.data 80929.078014                       # average ReadReq mshr miss latency
system.cpu.dcache.ReadReq_avg_mshr_miss_latency::total 80929.078014                       # average ReadReq mshr miss latency
system.cpu.dcache.WriteReq_hits::.cpu.data       530132                       # number of WriteReq hits
system.cpu.dcache.WriteReq_hits::total         530132                       # number of WriteReq hits
system.cpu.dcache.WriteReq_misses::.cpu.data          130                       # number of WriteReq misses
system.cpu.dcache.WriteReq_misses::total          130                       # number of WriteReq misses
system.cpu.dcache.WriteReq_miss_latency::.cpu.data     10027500                       # number of WriteReq miss cycles
system.cpu.dcache.WriteReq_miss_latency::total     10027500                       # number of WriteReq miss cycles
system.cpu.dcache.WriteReq_accesses::.cpu.data       530262                       # number of WriteReq accesses(hits+misses)
system.cpu.dcache.WriteReq_accesses::total       530262                       # number of WriteReq accesses(hits+misses)
system.cpu.dcache.WriteReq_miss_rate::.cpu.data     0.000245                       # miss rate for WriteReq accesses
system.cpu.dcache.WriteReq_miss_rate::total     0.000245                       # miss rate for WriteReq accesses
system.cpu.dcache.WriteReq_avg_miss_latency::.cpu.data 77134.615385                       # average WriteReq miss latency
system.cpu.dcache.WriteReq_avg_miss_latency::total 77134.615385                       # average WriteReq miss latency
system.cpu.dcache.WriteReq_mshr_misses::.cpu.data          130                       # number of WriteReq MSHR misses
system.cpu.dcache.WriteReq_mshr_misses::total          130                       # number of WriteReq MSHR misses
system.cpu.dcache.WriteReq_mshr_miss_latency::.cpu.data      9897500                       # number of WriteReq MSHR miss cycles
system.cpu.dcache.WriteReq_mshr_miss_latency::total      9897500                       # number of WriteReq MSHR miss cycles
system.cpu.dcache.WriteReq_mshr_miss_rate::.cpu.data     0.000245                       # mshr miss rate for WriteReq accesses
system.cpu.dcache.WriteReq_mshr_miss_rate::total     0.000245                       # mshr miss rate for WriteReq accesses
system.cpu.dcache.WriteReq_avg_mshr_miss_latency::.cpu.data 76134.615385                       # average WriteReq mshr miss latency
system.cpu.dcache.WriteReq_avg_mshr_miss_latency::total 76134.615385                       # average WriteReq mshr miss latency
system.cpu.dcache.tags.pwrStateResidencyTicks::UNDEFINED  52582725500                       # Cumulative time (in ticks) in various power states
system.cpu.dcache.tags.tagsinuse           250.939075                       # Cycle average of tags in use
system.cpu.dcache.tags.total_refs             2863244                       # Total number of references to valid blocks.
system.cpu.dcache.tags.sampled_refs               271                       # Sample count of references to valid blocks.
system.cpu.dcache.tags.avg_refs          10565.476015                       # Average number of references to valid blocks.
system.cpu.dcache.tags.warmup_cycle            175500                       # Cycle when the warmup percentage was hit.
system.cpu.dcache.tags.occ_blocks::.cpu.data   250.939075                       # Average occupied blocks per requestor
system.cpu.dcache.tags.occ_percent::.cpu.data     0.245058                       # Average percentage of cache occupancy
system.cpu.dcache.tags.occ_percent::total     0.245058                       # Average percentage of cache occupancy
system.cpu.dcache.tags.occ_task_id_blocks::1024          269                       # Occupied blocks per task id
system.cpu.dcache.tags.age_task_id_blocks_1024::0           11                       # Occupied blocks per task id
system.cpu.dcache.tags.age_task_id_blocks_1024::4          258                       # Occupied blocks per task id
system.cpu.dcache.tags.occ_task_id_percent::1024     0.262695                       # Percentage of cache occupancy per task id
system.cpu.dcache.tags.tag_accesses          11453247                       # Number of tag accesses
system.cpu.dcache.tags.data_accesses         11453247                       # Number of data accesses

---------- End Simulation Statistics   ----------
