
---------- Begin Simulation Statistics ----------
final_tick                               1046392183500                       # Number of ticks from beginning of simulation (restored from checkpoints and never reset)
host_inst_rate                                 645374                       # Simulator instruction rate (inst/s)
host_mem_usage                                 698344                       # Number of bytes of host memory used
host_op_rate                                   942818                       # Simulator op (including micro ops) rate (op/s)
host_seconds                                   774.75                       # Real time elapsed on the host
host_tick_rate                             1350615007                       # Simulator tick rate (ticks/s)
sim_freq                                 1000000000000                       # Frequency of simulated ticks
sim_insts                                   500000000                       # Number of instructions simulated
sim_ops                                     730450365                       # Number of ops (including micro ops) simulated
sim_seconds                                  1.046392                       # Number of seconds simulated
sim_ticks                                1046392183500                       # Number of ticks simulated
system.cpu.Branches                          37843254                       # Number of branches fetched
system.cpu.committedInsts                   500000000                       # Number of instructions committed
system.cpu.committedOps                     730450365                       # Number of ops (including micro ops) committed
system.cpu.dtb.rdAccesses                   225946812                       # TLB accesses on read requests
system.cpu.dtb.rdMisses                        616831                       # TLB misses on read requests
system.cpu.dtb.wrAccesses                    70038706                       # TLB accesses on write requests
system.cpu.dtb.wrMisses                        534101                       # TLB misses on write requests
system.cpu.idle_fraction                            0                       # Percentage of idle cycles
system.cpu.itb.rdAccesses                           0                       # TLB accesses on read requests
system.cpu.itb.rdMisses                             0                       # TLB misses on read requests
system.cpu.itb.wrAccesses                   687734691                       # TLB accesses on write requests
system.cpu.itb.wrMisses                            56                       # TLB misses on write requests
system.cpu.not_idle_fraction                        1                       # Percentage of non-idle cycles
system.cpu.numCycles                       2092784367                       # number of cpu cycles simulated
system.cpu.numWorkItemsCompleted                    0                       # number of work items this cpu completed
system.cpu.numWorkItemsStarted                      0                       # number of work items this cpu started
system.cpu.num_busy_cycles                 2092784367                       # Number of busy cycles
system.cpu.num_cc_register_reads            180840253                       # number of times the CC registers were read
system.cpu.num_cc_register_writes           276245101                       # number of times the CC registers were written
system.cpu.num_conditional_control_insts     31770444                       # number of instructions that are conditional controls
system.cpu.num_fp_alu_accesses                    761                       # Number of float alu accesses
system.cpu.num_fp_insts                           761                       # number of float instructions
system.cpu.num_fp_register_reads                 1183                       # number of times the floating registers were read
system.cpu.num_fp_register_writes                 497                       # number of times the floating registers were written
system.cpu.num_func_calls                     1453964                       # number of times a function call or return occured
system.cpu.num_idle_cycles                          0                       # Number of idle cycles
system.cpu.num_int_alu_accesses             729688772                       # Number of integer alu accesses
system.cpu.num_int_insts                    729688772                       # number of integer instructions
system.cpu.num_int_register_reads          1698743224                       # number of times the integer registers were read
system.cpu.num_int_register_writes          621892853                       # number of times the integer registers were written
system.cpu.num_load_insts                   225946804                       # Number of load instructions
system.cpu.num_mem_refs                     295985508                       # number of memory refs
system.cpu.num_store_insts                   70038704                       # Number of store instructions
system.cpu.num_vec_alu_accesses                     0                       # Number of vector alu accesses
system.cpu.num_vec_insts                            0                       # number of vector instructions
system.cpu.num_vec_register_reads                   0                       # number of times the vector registers were read
system.cpu.num_vec_register_writes                  0                       # number of times the vector registers were written
system.cpu.op_class::No_OpClass                329042      0.05%      0.05% # Class of executed instruction
system.cpu.op_class::IntAlu                 434348870     59.44%     59.49% # Class of executed instruction
system.cpu.op_class::IntMult                    20662      0.00%     59.49% # Class of executed instruction
system.cpu.op_class::IntDiv                       119      0.00%     59.49% # Class of executed instruction
system.cpu.op_class::FloatAdd                      15      0.00%     59.49% # Class of executed instruction
system.cpu.op_class::FloatCmp                       0      0.00%     59.49% # Class of executed instruction
system.cpu.op_class::FloatCvt                       0      0.00%     59.49% # Class of executed instruction
system.cpu.op_class::FloatMult                      0      0.00%     59.49% # Class of executed instruction
system.cpu.op_class::FloatMultAcc                   0      0.00%     59.49% # Class of executed instruction
system.cpu.op_class::FloatDiv                       0      0.00%     59.49% # Class of executed instruction
system.cpu.op_class::FloatMisc                      0      0.00%     59.49% # Class of executed instruction
system.cpu.op_class::FloatSqrt                      0      0.00%     59.49% # Class of executed instruction
system.cpu.op_class::SimdAdd                        0      0.00%     59.49% # Class of executed instruction
system.cpu.op_class::SimdAddAcc                     0      0.00%     59.49% # Class of executed instruction
system.cpu.op_class::SimdAlu                      122      0.00%     59.49% # Class of executed instruction
system.cpu.op_class::SimdCmp                        6      0.00%     59.49% # Class of executed instruction
system.cpu.op_class::SimdCvt                      120      0.00%     59.49% # Class of executed instruction
system.cpu.op_class::SimdMisc                     205      0.00%     59.49% # Class of executed instruction
system.cpu.op_class::SimdMult                       0      0.00%     59.49% # Class of executed instruction
system.cpu.op_class::SimdMultAcc                    0      0.00%     59.49% # Class of executed instruction
system.cpu.op_class::SimdShift                      0      0.00%     59.49% # Class of executed instruction
system.cpu.op_class::SimdShiftAcc                   0      0.00%     59.49% # Class of executed instruction
system.cpu.op_class::SimdDiv                        0      0.00%     59.49% # Class of executed instruction
system.cpu.op_class::SimdSqrt                       0      0.00%     59.49% # Class of executed instruction
system.cpu.op_class::SimdFloatAdd                   0      0.00%     59.49% # Class of executed instruction
system.cpu.op_class::SimdFloatAlu                   0      0.00%     59.49% # Class of executed instruction
system.cpu.op_class::SimdFloatCmp                   0      0.00%     59.49% # Class of executed instruction
system.cpu.op_class::SimdFloatCvt                   0      0.00%     59.49% # Class of executed instruction
system.cpu.op_class::SimdFloatDiv                   0      0.00%     59.49% # Class of executed instruction
system.cpu.op_class::SimdFloatMisc                  0      0.00%     59.49% # Class of executed instruction
system.cpu.op_class::SimdFloatMult                  0      0.00%     59.49% # Class of executed instruction
system.cpu.op_class::SimdFloatMultAcc               0      0.00%     59.49% # Class of executed instruction
system.cpu.op_class::SimdFloatSqrt                  0      0.00%     59.49% # Class of executed instruction
system.cpu.op_class::SimdReduceAdd                  0      0.00%     59.49% # Class of executed instruction
system.cpu.op_class::SimdReduceAlu                  0      0.00%     59.49% # Class of executed instruction
system.cpu.op_class::SimdReduceCmp                  0      0.00%     59.49% # Class of executed instruction
system.cpu.op_class::SimdFloatReduceAdd             0      0.00%     59.49% # Class of executed instruction
system.cpu.op_class::SimdFloatReduceCmp             0      0.00%     59.49% # Class of executed instruction
system.cpu.op_class::SimdAes                        0      0.00%     59.49% # Class of executed instruction
system.cpu.op_class::SimdAesMix                     0      0.00%     59.49% # Class of executed instruction
system.cpu.op_class::SimdSha1Hash                   0      0.00%     59.49% # Class of executed instruction
system.cpu.op_class::SimdSha1Hash2                  0      0.00%     59.49% # Class of executed instruction
system.cpu.op_class::SimdSha256Hash                 0      0.00%     59.49% # Class of executed instruction
system.cpu.op_class::SimdSha256Hash2                0      0.00%     59.49% # Class of executed instruction
system.cpu.op_class::SimdShaSigma2                  0      0.00%     59.49% # Class of executed instruction
system.cpu.op_class::SimdShaSigma3                  0      0.00%     59.49% # Class of executed instruction
system.cpu.op_class::SimdPredAlu                    0      0.00%     59.49% # Class of executed instruction
system.cpu.op_class::MemRead                225946726     30.92%     90.41% # Class of executed instruction
system.cpu.op_class::MemWrite                70038540      9.59%    100.00% # Class of executed instruction
system.cpu.op_class::FloatMemRead                  78      0.00%    100.00% # Class of executed instruction
system.cpu.op_class::FloatMemWrite                164      0.00%    100.00% # Class of executed instruction
system.cpu.op_class::IprAccess                      0      0.00%    100.00% # Class of executed instruction
system.cpu.op_class::InstPrefetch                   0      0.00%    100.00% # Class of executed instruction
system.cpu.op_class::total                  730684669                       # Class of executed instruction
system.cpu.workload.numSyscalls                    86                       # Number of system calls
system.membus.snoop_filter.hit_multi_requests            0                       # Number of requests hitting in the snoop filter with multiple (>1) holders of the requested data.
system.membus.snoop_filter.hit_multi_snoops            0                       # Number of snoops hitting in the snoop filter with multiple (>1) holders of the requested data.
system.membus.snoop_filter.hit_single_requests       293014                       # Number of requests hitting in the snoop filter with a single holder of the requested data.
system.membus.snoop_filter.hit_single_snoops            0                       # Number of snoops hitting in the snoop filter with a single holder of the requested data.
system.membus.snoop_filter.tot_requests        618797                       # Total number of requests made to the snoop filter.
system.membus.snoop_filter.tot_snoops               0                       # Total number of snoops made to the snoop filter.
system.tol2bus.snoop_filter.hit_multi_requests            1                       # Number of requests hitting in the snoop filter with multiple (>1) holders of the requested data.
system.tol2bus.snoop_filter.hit_multi_snoops            0                       # Number of snoops hitting in the snoop filter with multiple (>1) holders of the requested data.
system.tol2bus.snoop_filter.hit_single_requests      3388355                       # Number of requests hitting in the snoop filter with a single holder of the requested data.
system.tol2bus.snoop_filter.hit_single_snoops          541                       # Number of snoops hitting in the snoop filter with a single holder of the requested data.
system.tol2bus.snoop_filter.tot_requests      6777222                       # Total number of requests made to the snoop filter.
system.tol2bus.snoop_filter.tot_snoops            541                       # Total number of snoops made to the snoop filter.
system.membus.pwrStateResidencyTicks::UNDEFINED 1046392183500                       # Cumulative time (in ticks) in various power states
system.membus.trans_dist::ReadResp             164267                       # Transaction distribution
system.membus.trans_dist::WritebackDirty       189008                       # Transaction distribution
system.membus.trans_dist::CleanEvict           104006                       # Transaction distribution
system.membus.trans_dist::ReadExReq            161516                       # Transaction distribution
system.membus.trans_dist::ReadExResp           161516                       # Transaction distribution
system.membus.trans_dist::ReadSharedReq        164267                       # Transaction distribution
system.membus.pkt_count_system.l2.mem_side::system.mem_ctrls.port       944580                       # Packet count per connected master and slave (bytes)
system.membus.pkt_count_system.l2.mem_side::total       944580                       # Packet count per connected master and slave (bytes)
system.membus.pkt_count::total                 944580                       # Packet count per connected master and slave (bytes)
system.membus.pkt_size_system.l2.mem_side::system.mem_ctrls.port     32946624                       # Cumulative packet size per connected master and slave (bytes)
system.membus.pkt_size_system.l2.mem_side::total     32946624                       # Cumulative packet size per connected master and slave (bytes)
system.membus.pkt_size::total                32946624                       # Cumulative packet size per connected master and slave (bytes)
system.membus.snoops                                0                       # Total snoops (count)
system.membus.snoopTraffic                          0                       # Total snoop traffic (bytes)
system.membus.snoop_fanout::samples            325783                       # Request fanout histogram
system.membus.snoop_fanout::mean                    0                       # Request fanout histogram
system.membus.snoop_fanout::stdev                   0                       # Request fanout histogram
system.membus.snoop_fanout::underflows              0      0.00%      0.00% # Request fanout histogram
system.membus.snoop_fanout::0                  325783    100.00%    100.00% # Request fanout histogram
system.membus.snoop_fanout::1                       0      0.00%    100.00% # Request fanout histogram
system.membus.snoop_fanout::overflows               0      0.00%    100.00% # Request fanout histogram
system.membus.snoop_fanout::min_value               0                       # Request fanout histogram
system.membus.snoop_fanout::max_value               0                       # Request fanout histogram
system.membus.snoop_fanout::total              325783                       # Request fanout histogram
system.membus.reqLayer2.occupancy          1383188500                       # Layer occupancy (ticks)
system.membus.reqLayer2.utilization               0.1                       # Layer utilization (%)
system.membus.respLayer1.occupancy         1743927750                       # Layer occupancy (ticks)
system.membus.respLayer1.utilization              0.2                       # Layer utilization (%)
system.tol2bus.pwrStateResidencyTicks::UNDEFINED 1046392183500                       # Cumulative time (in ticks) in various power states
system.tol2bus.trans_dist::ReadResp           2582448                       # Transaction distribution
system.tol2bus.trans_dist::WritebackDirty      1907450                       # Transaction distribution
system.tol2bus.trans_dist::WritebackClean          846                       # Transaction distribution
system.tol2bus.trans_dist::CleanEvict         1773614                       # Transaction distribution
system.tol2bus.trans_dist::ReadExReq           806419                       # Transaction distribution
system.tol2bus.trans_dist::ReadExResp          806419                       # Transaction distribution
system.tol2bus.trans_dist::ReadCleanReq          1102                       # Transaction distribution
system.tol2bus.trans_dist::ReadSharedReq      2581346                       # Transaction distribution
system.tol2bus.pkt_count_system.cpu.icache.mem_side::system.l2.cpu_side         3050                       # Packet count per connected master and slave (bytes)
system.tol2bus.pkt_count_system.cpu.dcache.mem_side::system.l2.cpu_side     10163039                       # Packet count per connected master and slave (bytes)
system.tol2bus.pkt_count::total              10166089                       # Packet count per connected master and slave (bytes)
system.tol2bus.pkt_size_system.cpu.icache.mem_side::system.l2.cpu_side       124672                       # Cumulative packet size per connected master and slave (bytes)
system.tol2bus.pkt_size_system.cpu.dcache.mem_side::system.l2.cpu_side    326797248                       # Cumulative packet size per connected master and slave (bytes)
system.tol2bus.pkt_size::total              326921920                       # Cumulative packet size per connected master and slave (bytes)
system.tol2bus.snoops                          293555                       # Total snoops (count)
system.tol2bus.snoopTraffic                  12096512                       # Total snoop traffic (bytes)
system.tol2bus.snoop_fanout::samples          3682422                       # Request fanout histogram
system.tol2bus.snoop_fanout::mean            0.000147                       # Request fanout histogram
system.tol2bus.snoop_fanout::stdev           0.012131                       # Request fanout histogram
system.tol2bus.snoop_fanout::underflows             0      0.00%      0.00% # Request fanout histogram
system.tol2bus.snoop_fanout::0                3681880     99.99%     99.99% # Request fanout histogram
system.tol2bus.snoop_fanout::1                    542      0.01%    100.00% # Request fanout histogram
system.tol2bus.snoop_fanout::2                      0      0.00%    100.00% # Request fanout histogram
system.tol2bus.snoop_fanout::3                      0      0.00%    100.00% # Request fanout histogram
system.tol2bus.snoop_fanout::4                      0      0.00%    100.00% # Request fanout histogram
system.tol2bus.snoop_fanout::overflows              0      0.00%    100.00% # Request fanout histogram
system.tol2bus.snoop_fanout::min_value              0                       # Request fanout histogram
system.tol2bus.snoop_fanout::max_value              1                       # Request fanout histogram
system.tol2bus.snoop_fanout::total            3682422                       # Request fanout histogram
system.tol2bus.reqLayer0.occupancy         5107899000                       # Layer occupancy (ticks)
system.tol2bus.reqLayer0.utilization              0.5                       # Layer utilization (%)
system.tol2bus.respLayer1.occupancy        5081647500                       # Layer occupancy (ticks)
system.tol2bus.respLayer1.utilization             0.5                       # Layer utilization (%)
system.tol2bus.respLayer0.occupancy           1653000                       # Layer occupancy (ticks)
system.tol2bus.respLayer0.utilization             0.0                       # Layer utilization (%)
system.voltage_domain.voltage                       1                       # Voltage in Volts
system.clk_domain.clock                          1000                       # Clock period in ticks
system.l2.pwrStateResidencyTicks::UNDEFINED 1046392183500                       # Cumulative time (in ticks) in various power states
system.l2.demand_hits::.cpu.inst                   90                       # number of demand (read+write) hits
system.l2.demand_hits::.cpu.data              3062994                       # number of demand (read+write) hits
system.l2.demand_hits::total                  3063084                       # number of demand (read+write) hits
system.l2.overall_hits::.cpu.inst                  90                       # number of overall hits
system.l2.overall_hits::.cpu.data             3062994                       # number of overall hits
system.l2.overall_hits::total                 3063084                       # number of overall hits
system.l2.demand_misses::.cpu.inst               1012                       # number of demand (read+write) misses
system.l2.demand_misses::.cpu.data             324771                       # number of demand (read+write) misses
system.l2.demand_misses::total                 325783                       # number of demand (read+write) misses
system.l2.overall_misses::.cpu.inst              1012                       # number of overall misses
system.l2.overall_misses::.cpu.data            324771                       # number of overall misses
system.l2.overall_misses::total                325783                       # number of overall misses
system.l2.demand_miss_latency::.cpu.inst     81714500                       # number of demand (read+write) miss cycles
system.l2.demand_miss_latency::.cpu.data  26523879000                       # number of demand (read+write) miss cycles
system.l2.demand_miss_latency::total      26605593500                       # number of demand (read+write) miss cycles
system.l2.overall_miss_latency::.cpu.inst     81714500                       # number of overall miss cycles
system.l2.overall_miss_latency::.cpu.data  26523879000                       # number of overall miss cycles
system.l2.overall_miss_latency::total     26605593500                       # number of overall miss cycles
system.l2.demand_accesses::.cpu.inst             1102                       # number of demand (read+write) accesses
system.l2.demand_accesses::.cpu.data          3387765                       # number of demand (read+write) accesses
system.l2.demand_accesses::total              3388867                       # number of demand (read+write) accesses
system.l2.overall_accesses::.cpu.inst            1102                       # number of overall (read+write) accesses
system.l2.overall_accesses::.cpu.data         3387765                       # number of overall (read+write) accesses
system.l2.overall_accesses::total             3388867                       # number of overall (read+write) accesses
system.l2.demand_miss_rate::.cpu.inst        0.918330                       # miss rate for demand accesses
system.l2.demand_miss_rate::.cpu.data        0.095866                       # miss rate for demand accesses
system.l2.demand_miss_rate::total            0.096133                       # miss rate for demand accesses
system.l2.overall_miss_rate::.cpu.inst       0.918330                       # miss rate for overall accesses
system.l2.overall_miss_rate::.cpu.data       0.095866                       # miss rate for overall accesses
system.l2.overall_miss_rate::total           0.096133                       # miss rate for overall accesses
system.l2.demand_avg_miss_latency::.cpu.inst 80745.553360                       # average overall miss latency
system.l2.demand_avg_miss_latency::.cpu.data 81669.480957                       # average overall miss latency
system.l2.demand_avg_miss_latency::total 81666.610904                       # average overall miss latency
system.l2.overall_avg_miss_latency::.cpu.inst 80745.553360                       # average overall miss latency
system.l2.overall_avg_miss_latency::.cpu.data 81669.480957                       # average overall miss latency
system.l2.overall_avg_miss_latency::total 81666.610904                       # average overall miss latency
system.l2.blocked_cycles::no_mshrs                  0                       # number of cycles access was blocked
system.l2.blocked_cycles::no_targets                0                       # number of cycles access was blocked
system.l2.blocked::no_mshrs                         0                       # number of cycles access was blocked
system.l2.blocked::no_targets                       0                       # number of cycles access was blocked
system.l2.avg_blocked_cycles::no_mshrs            nan                       # average number of cycles each access was blocked
system.l2.avg_blocked_cycles::no_targets          nan                       # average number of cycles each access was blocked
system.l2.writebacks::.writebacks              189008                       # number of writebacks
system.l2.writebacks::total                    189008                       # number of writebacks
system.l2.demand_mshr_misses::.cpu.inst          1012                       # number of demand (read+write) MSHR misses
system.l2.demand_mshr_misses::.cpu.data        324771                       # number of demand (read+write) MSHR misses
system.l2.demand_mshr_misses::total            325783                       # number of demand (read+write) MSHR misses
system.l2.overall_mshr_misses::.cpu.inst         1012                       # number of overall MSHR misses
system.l2.overall_mshr_misses::.cpu.data       324771                       # number of overall MSHR misses
system.l2.overall_mshr_misses::total           325783                       # number of overall MSHR misses
system.l2.demand_mshr_miss_latency::.cpu.inst     71594500                       # number of demand (read+write) MSHR miss cycles
system.l2.demand_mshr_miss_latency::.cpu.data  23276169000                       # number of demand (read+write) MSHR miss cycles
system.l2.demand_mshr_miss_latency::total  23347763500                       # number of demand (read+write) MSHR miss cycles
system.l2.overall_mshr_miss_latency::.cpu.inst     71594500                       # number of overall MSHR miss cycles
system.l2.overall_mshr_miss_latency::.cpu.data  23276169000                       # number of overall MSHR miss cycles
system.l2.overall_mshr_miss_latency::total  23347763500                       # number of overall MSHR miss cycles
system.l2.demand_mshr_miss_rate::.cpu.inst     0.918330                       # mshr miss rate for demand accesses
system.l2.demand_mshr_miss_rate::.cpu.data     0.095866                       # mshr miss rate for demand accesses
system.l2.demand_mshr_miss_rate::total       0.096133                       # mshr miss rate for demand accesses
system.l2.overall_mshr_miss_rate::.cpu.inst     0.918330                       # mshr miss rate for overall accesses
system.l2.overall_mshr_miss_rate::.cpu.data     0.095866                       # mshr miss rate for overall accesses
system.l2.overall_mshr_miss_rate::total      0.096133                       # mshr miss rate for overall accesses
system.l2.demand_avg_mshr_miss_latency::.cpu.inst 70745.553360                       # average overall mshr miss latency
system.l2.demand_avg_mshr_miss_latency::.cpu.data 71669.480957                       # average overall mshr miss latency
system.l2.demand_avg_mshr_miss_latency::total 71666.610904                       # average overall mshr miss latency
system.l2.overall_avg_mshr_miss_latency::.cpu.inst 70745.553360                       # average overall mshr miss latency
system.l2.overall_avg_mshr_miss_latency::.cpu.data 71669.480957                       # average overall mshr miss latency
system.l2.overall_avg_mshr_miss_latency::total 71666.610904                       # average overall mshr miss latency
system.l2.replacements                         293555                       # number of replacements
system.l2.WritebackDirty_hits::.writebacks      1718442                       # number of WritebackDirty hits
system.l2.WritebackDirty_hits::total          1718442                       # number of WritebackDirty hits
system.l2.WritebackDirty_accesses::.writebacks      1718442                       # number of WritebackDirty accesses(hits+misses)
system.l2.WritebackDirty_accesses::total      1718442                       # number of WritebackDirty accesses(hits+misses)
system.l2.WritebackClean_hits::.writebacks          846                       # number of WritebackClean hits
system.l2.WritebackClean_hits::total              846                       # number of WritebackClean hits
system.l2.WritebackClean_accesses::.writebacks          846                       # number of WritebackClean accesses(hits+misses)
system.l2.WritebackClean_accesses::total          846                       # number of WritebackClean accesses(hits+misses)
system.l2.ReadExReq_hits::.cpu.data            644903                       # number of ReadExReq hits
system.l2.ReadExReq_hits::total                644903                       # number of ReadExReq hits
system.l2.ReadExReq_misses::.cpu.data          161516                       # number of ReadExReq misses
system.l2.ReadExReq_misses::total              161516                       # number of ReadExReq misses
system.l2.ReadExReq_miss_latency::.cpu.data  13381212500                       # number of ReadExReq miss cycles
system.l2.ReadExReq_miss_latency::total   13381212500                       # number of ReadExReq miss cycles
system.l2.ReadExReq_accesses::.cpu.data        806419                       # number of ReadExReq accesses(hits+misses)
system.l2.ReadExReq_accesses::total            806419                       # number of ReadExReq accesses(hits+misses)
system.l2.ReadExReq_miss_rate::.cpu.data     0.200288                       # miss rate for ReadExReq accesses
system.l2.ReadExReq_miss_rate::total         0.200288                       # miss rate for ReadExReq accesses
system.l2.ReadExReq_avg_miss_latency::.cpu.data 82847.597142                       # average ReadExReq miss latency
system.l2.ReadExReq_avg_miss_latency::total 82847.597142                       # average ReadExReq miss latency
system.l2.ReadExReq_mshr_misses::.cpu.data       161516                       # number of ReadExReq MSHR misses
system.l2.ReadExReq_mshr_misses::total         161516                       # number of ReadExReq MSHR misses
system.l2.ReadExReq_mshr_miss_latency::.cpu.data  11766052500                       # number of ReadExReq MSHR miss cycles
system.l2.ReadExReq_mshr_miss_latency::total  11766052500                       # number of ReadExReq MSHR miss cycles
system.l2.ReadExReq_mshr_miss_rate::.cpu.data     0.200288                       # mshr miss rate for ReadExReq accesses
system.l2.ReadExReq_mshr_miss_rate::total     0.200288                       # mshr miss rate for ReadExReq accesses
system.l2.ReadExReq_avg_mshr_miss_latency::.cpu.data 72847.597142                       # average ReadExReq mshr miss latency
system.l2.ReadExReq_avg_mshr_miss_latency::total 72847.597142                       # average ReadExReq mshr miss latency
system.l2.ReadCleanReq_hits::.cpu.inst             90                       # number of ReadCleanReq hits
system.l2.ReadCleanReq_hits::total                 90                       # number of ReadCleanReq hits
system.l2.ReadCleanReq_misses::.cpu.inst         1012                       # number of ReadCleanReq misses
system.l2.ReadCleanReq_misses::total             1012                       # number of ReadCleanReq misses
system.l2.ReadCleanReq_miss_latency::.cpu.inst     81714500                       # number of ReadCleanReq miss cycles
system.l2.ReadCleanReq_miss_latency::total     81714500                       # number of ReadCleanReq miss cycles
system.l2.ReadCleanReq_accesses::.cpu.inst         1102                       # number of ReadCleanReq accesses(hits+misses)
system.l2.ReadCleanReq_accesses::total           1102                       # number of ReadCleanReq accesses(hits+misses)
system.l2.ReadCleanReq_miss_rate::.cpu.inst     0.918330                       # miss rate for ReadCleanReq accesses
system.l2.ReadCleanReq_miss_rate::total      0.918330                       # miss rate for ReadCleanReq accesses
system.l2.ReadCleanReq_avg_miss_latency::.cpu.inst 80745.553360                       # average ReadCleanReq miss latency
system.l2.ReadCleanReq_avg_miss_latency::total 80745.553360                       # average ReadCleanReq miss latency
system.l2.ReadCleanReq_mshr_misses::.cpu.inst         1012                       # number of ReadCleanReq MSHR misses
system.l2.ReadCleanReq_mshr_misses::total         1012                       # number of ReadCleanReq MSHR misses
system.l2.ReadCleanReq_mshr_miss_latency::.cpu.inst     71594500                       # number of ReadCleanReq MSHR miss cycles
system.l2.ReadCleanReq_mshr_miss_latency::total     71594500                       # number of ReadCleanReq MSHR miss cycles
system.l2.ReadCleanReq_mshr_miss_rate::.cpu.inst     0.918330                       # mshr miss rate for ReadCleanReq accesses
system.l2.ReadCleanReq_mshr_miss_rate::total     0.918330                       # mshr miss rate for ReadCleanReq accesses
system.l2.ReadCleanReq_avg_mshr_miss_latency::.cpu.inst 70745.553360                       # average ReadCleanReq mshr miss latency
system.l2.ReadCleanReq_avg_mshr_miss_latency::total 70745.553360                       # average ReadCleanReq mshr miss latency
system.l2.ReadSharedReq_hits::.cpu.data       2418091                       # number of ReadSharedReq hits
system.l2.ReadSharedReq_hits::total           2418091                       # number of ReadSharedReq hits
system.l2.ReadSharedReq_misses::.cpu.data       163255                       # number of ReadSharedReq misses
system.l2.ReadSharedReq_misses::total          163255                       # number of ReadSharedReq misses
system.l2.ReadSharedReq_miss_latency::.cpu.data  13142666500                       # number of ReadSharedReq miss cycles
system.l2.ReadSharedReq_miss_latency::total  13142666500                       # number of ReadSharedReq miss cycles
system.l2.ReadSharedReq_accesses::.cpu.data      2581346                       # number of ReadSharedReq accesses(hits+misses)
system.l2.ReadSharedReq_accesses::total       2581346                       # number of ReadSharedReq accesses(hits+misses)
system.l2.ReadSharedReq_miss_rate::.cpu.data     0.063244                       # miss rate for ReadSharedReq accesses
system.l2.ReadSharedReq_miss_rate::total     0.063244                       # miss rate for ReadSharedReq accesses
system.l2.ReadSharedReq_avg_miss_latency::.cpu.data 80503.914122                       # average ReadSharedReq miss latency
system.l2.ReadSharedReq_avg_miss_latency::total 80503.914122                       # average ReadSharedReq miss latency
system.l2.ReadSharedReq_mshr_misses::.cpu.data       163255                       # number of ReadSharedReq MSHR misses
system.l2.ReadSharedReq_mshr_misses::total       163255                       # number of ReadSharedReq MSHR misses
system.l2.ReadSharedReq_mshr_miss_latency::.cpu.data  11510116500                       # number of ReadSharedReq MSHR miss cycles
system.l2.ReadSharedReq_mshr_miss_latency::total  11510116500                       # number of ReadSharedReq MSHR miss cycles
system.l2.ReadSharedReq_mshr_miss_rate::.cpu.data     0.063244                       # mshr miss rate for ReadSharedReq accesses
system.l2.ReadSharedReq_mshr_miss_rate::total     0.063244                       # mshr miss rate for ReadSharedReq accesses
system.l2.ReadSharedReq_avg_mshr_miss_latency::.cpu.data 70503.914122                       # average ReadSharedReq mshr miss latency
system.l2.ReadSharedReq_avg_mshr_miss_latency::total 70503.914122                       # average ReadSharedReq mshr miss latency
system.l2.tags.pwrStateResidencyTicks::UNDEFINED 1046392183500                       # Cumulative time (in ticks) in various power states
system.l2.tags.tagsinuse                 32644.623471                       # Cycle average of tags in use
system.l2.tags.total_refs                     6777221                       # Total number of references to valid blocks.
system.l2.tags.sampled_refs                    326323                       # Sample count of references to valid blocks.
system.l2.tags.avg_refs                     20.768444                       # Average number of references to valid blocks.
system.l2.tags.warmup_cycle                     77000                       # Cycle when the warmup percentage was hit.
system.l2.tags.occ_blocks::.writebacks      54.448237                       # Average occupied blocks per requestor
system.l2.tags.occ_blocks::.cpu.inst        57.982792                       # Average occupied blocks per requestor
system.l2.tags.occ_blocks::.cpu.data     32532.192442                       # Average occupied blocks per requestor
system.l2.tags.occ_percent::.writebacks      0.001662                       # Average percentage of cache occupancy
system.l2.tags.occ_percent::.cpu.inst        0.001769                       # Average percentage of cache occupancy
system.l2.tags.occ_percent::.cpu.data        0.992804                       # Average percentage of cache occupancy
system.l2.tags.occ_percent::total            0.996235                       # Average percentage of cache occupancy
system.l2.tags.occ_task_id_blocks::1024         32768                       # Occupied blocks per task id
system.l2.tags.age_task_id_blocks_1024::1            9                       # Occupied blocks per task id
system.l2.tags.age_task_id_blocks_1024::2           16                       # Occupied blocks per task id
system.l2.tags.age_task_id_blocks_1024::3          225                       # Occupied blocks per task id
system.l2.tags.age_task_id_blocks_1024::4        32518                       # Occupied blocks per task id
system.l2.tags.occ_task_id_percent::1024            1                       # Percentage of cache occupancy per task id
system.l2.tags.tag_accesses                  54544091                       # Number of tag accesses
system.l2.tags.data_accesses                 54544091                       # Number of data accesses
system.cpu_voltage_domain.voltage                   1                       # Voltage in Volts
system.mem_ctrls.pwrStateResidencyTicks::UNDEFINED 1046392183500                       # Cumulative time (in ticks) in various power states
system.mem_ctrls.bytes_read::.cpu.inst          64768                       # Number of bytes read from this memory
system.mem_ctrls.bytes_read::.cpu.data       20785344                       # Number of bytes read from this memory
system.mem_ctrls.bytes_read::total           20850112                       # Number of bytes read from this memory
system.mem_ctrls.bytes_inst_read::.cpu.inst        64768                       # Number of instructions bytes read from this memory
system.mem_ctrls.bytes_inst_read::total         64768                       # Number of instructions bytes read from this memory
system.mem_ctrls.bytes_written::.writebacks     12096512                       # Number of bytes written to this memory
system.mem_ctrls.bytes_written::total        12096512                       # Number of bytes written to this memory
system.mem_ctrls.num_reads::.cpu.inst            1012                       # Number of read requests responded to by this memory
system.mem_ctrls.num_reads::.cpu.data          324771                       # Number of read requests responded to by this memory
system.mem_ctrls.num_reads::total              325783                       # Number of read requests responded to by this memory
system.mem_ctrls.num_writes::.writebacks       189008                       # Number of write requests responded to by this memory
system.mem_ctrls.num_writes::total             189008                       # Number of write requests responded to by this memory
system.mem_ctrls.bw_read::.cpu.inst             61896                       # Total read bandwidth from this memory (bytes/s)
system.mem_ctrls.bw_read::.cpu.data          19863818                       # Total read bandwidth from this memory (bytes/s)
system.mem_ctrls.bw_read::total              19925715                       # Total read bandwidth from this memory (bytes/s)
system.mem_ctrls.bw_inst_read::.cpu.inst        61896                       # Instruction read bandwidth from this memory (bytes/s)
system.mem_ctrls.bw_inst_read::total            61896                       # Instruction read bandwidth from this memory (bytes/s)
system.mem_ctrls.bw_write::.writebacks       11560209                       # Write bandwidth from this memory (bytes/s)
system.mem_ctrls.bw_write::total             11560209                       # Write bandwidth from this memory (bytes/s)
system.mem_ctrls.bw_total::.writebacks       11560209                       # Total bandwidth to/from this memory (bytes/s)
system.mem_ctrls.bw_total::.cpu.inst            61896                       # Total bandwidth to/from this memory (bytes/s)
system.mem_ctrls.bw_total::.cpu.data         19863818                       # Total bandwidth to/from this memory (bytes/s)
system.mem_ctrls.bw_total::total             31485923                       # Total bandwidth to/from this memory (bytes/s)
system.mem_ctrls.avgPriority_.writebacks::samples    189008.00                       # Average QoS priority value for accepted requests
system.mem_ctrls.avgPriority_.cpu.inst::samples      1012.00                       # Average QoS priority value for accepted requests
system.mem_ctrls.avgPriority_.cpu.data::samples    324508.00                       # Average QoS priority value for accepted requests
system.mem_ctrls.priorityMinLatency      0.000000018750                       # per QoS priority minimum request to response latency (s)
system.mem_ctrls.priorityMaxLatency      0.351428420500                       # per QoS priority maximum request to response latency (s)
system.mem_ctrls.numReadWriteTurnArounds        10974                       # Number of turnarounds from READ to WRITE
system.mem_ctrls.numWriteReadTurnArounds        10974                       # Number of turnarounds from WRITE to READ
system.mem_ctrls.numStayReadState             1103787                       # Number of times bus staying in READ state
system.mem_ctrls.numStayWriteState             178379                       # Number of times bus staying in WRITE state
system.mem_ctrls.readReqs                      325783                       # Number of read requests accepted
system.mem_ctrls.writeReqs                     189008                       # Number of write requests accepted
system.mem_ctrls.readBursts                    325783                       # Number of DRAM read bursts, including those serviced by the write queue
system.mem_ctrls.writeBursts                   189008                       # Number of DRAM write bursts, including those merged in the write queue
system.mem_ctrls.servicedByWrQ                    263                       # Number of DRAM read bursts serviced by the write queue
system.mem_ctrls.mergedWrBursts                     0                       # Number of DRAM write bursts merged with an existing one
system.mem_ctrls.neitherReadNorWriteReqs            0                       # Number of requests that are neither read nor write
system.mem_ctrls.perBankRdBursts::0             21381                       # Per bank write bursts
system.mem_ctrls.perBankRdBursts::1             20564                       # Per bank write bursts
system.mem_ctrls.perBankRdBursts::2             20541                       # Per bank write bursts
system.mem_ctrls.perBankRdBursts::3             19772                       # Per bank write bursts
system.mem_ctrls.perBankRdBursts::4             19850                       # Per bank write bursts
system.mem_ctrls.perBankRdBursts::5             20072                       # Per bank write bursts
system.mem_ctrls.perBankRdBursts::6             20890                       # Per bank write bursts
system.mem_ctrls.perBankRdBursts::7             20448                       # Per bank write bursts
system.mem_ctrls.perBankRdBursts::8             19166                       # Per bank write bursts
system.mem_ctrls.perBankRdBursts::9             19039                       # Per bank write bursts
system.mem_ctrls.perBankRdBursts::10            19811                       # Per bank write bursts
system.mem_ctrls.perBankRdBursts::11            20812                       # Per bank write bursts
system.mem_ctrls.perBankRdBursts::12            20894                       # Per bank write bursts
system.mem_ctrls.perBankRdBursts::13            20493                       # Per bank write bursts
system.mem_ctrls.perBankRdBursts::14            20741                       # Per bank write bursts
system.mem_ctrls.perBankRdBursts::15            21046                       # Per bank write bursts
system.mem_ctrls.perBankWrBursts::0             12422                       # Per bank write bursts
system.mem_ctrls.perBankWrBursts::1             11928                       # Per bank write bursts
system.mem_ctrls.perBankWrBursts::2             11805                       # Per bank write bursts
system.mem_ctrls.perBankWrBursts::3             11346                       # Per bank write bursts
system.mem_ctrls.perBankWrBursts::4             11532                       # Per bank write bursts
system.mem_ctrls.perBankWrBursts::5             11307                       # Per bank write bursts
system.mem_ctrls.perBankWrBursts::6             11954                       # Per bank write bursts
system.mem_ctrls.perBankWrBursts::7             11791                       # Per bank write bursts
system.mem_ctrls.perBankWrBursts::8             11508                       # Per bank write bursts
system.mem_ctrls.perBankWrBursts::9             11432                       # Per bank write bursts
system.mem_ctrls.perBankWrBursts::10            11562                       # Per bank write bursts
system.mem_ctrls.perBankWrBursts::11            11901                       # Per bank write bursts
system.mem_ctrls.perBankWrBursts::12            12040                       # Per bank write bursts
system.mem_ctrls.perBankWrBursts::13            11934                       # Per bank write bursts
system.mem_ctrls.perBankWrBursts::14            12200                       # Per bank write bursts
system.mem_ctrls.perBankWrBursts::15            12319                       # Per bank write bursts
system.mem_ctrls.avgRdQLen                       1.00                       # Average read queue length when enqueuing
system.mem_ctrls.avgWrQLen                      25.84                       # Average write queue length when enqueuing
system.mem_ctrls.totQLat                   3926254750                       # Total ticks spent queuing
system.mem_ctrls.totBusLat                 1627600000                       # Total ticks spent in databus transfers
system.mem_ctrls.totMemAccLat             10029754750                       # Total ticks spent from burst creation until serviced by the DRAM
system.mem_ctrls.avgQLat                     12061.49                       # Average queueing delay per DRAM burst
system.mem_ctrls.avgBusLat                    5000.00                       # Average bus latency per DRAM burst
system.mem_ctrls.avgMemAccLat                30811.49                       # Average memory access latency per DRAM burst
system.mem_ctrls.numRdRetry                         0                       # Number of times read queue was full causing retry
system.mem_ctrls.numWrRetry                         0                       # Number of times write queue was full causing retry
system.mem_ctrls.readRowHits                   196450                       # Number of row buffer hits during reads
system.mem_ctrls.writeRowHits                  113357                       # Number of row buffer hits during writes
system.mem_ctrls.readRowHitRate                 60.35                       # Row buffer hit rate for reads
system.mem_ctrls.writeRowHitRate                59.97                       # Row buffer hit rate for writes
system.mem_ctrls.readPktSize::0                     0                       # Read request sizes (log2)
system.mem_ctrls.readPktSize::1                     0                       # Read request sizes (log2)
system.mem_ctrls.readPktSize::2                     0                       # Read request sizes (log2)
system.mem_ctrls.readPktSize::3                     0                       # Read request sizes (log2)
system.mem_ctrls.readPktSize::4                     0                       # Read request sizes (log2)
system.mem_ctrls.readPktSize::5                     0                       # Read request sizes (log2)
system.mem_ctrls.readPktSize::6                325783                       # Read request sizes (log2)
system.mem_ctrls.writePktSize::0                    0                       # Write request sizes (log2)
system.mem_ctrls.writePktSize::1                    0                       # Write request sizes (log2)
system.mem_ctrls.writePktSize::2                    0                       # Write request sizes (log2)
system.mem_ctrls.writePktSize::3                    0                       # Write request sizes (log2)
system.mem_ctrls.writePktSize::4                    0                       # Write request sizes (log2)
system.mem_ctrls.writePktSize::5                    0                       # Write request sizes (log2)
system.mem_ctrls.writePktSize::6               189008                       # Write request sizes (log2)
system.mem_ctrls.rdQLenPdf::0                  316997                       # What read queue length does an incoming req see
system.mem_ctrls.rdQLenPdf::1                    8064                       # What read queue length does an incoming req see
system.mem_ctrls.rdQLenPdf::2                     331                       # What read queue length does an incoming req see
system.mem_ctrls.rdQLenPdf::3                     128                       # What read queue length does an incoming req see
system.mem_ctrls.rdQLenPdf::4                       0                       # What read queue length does an incoming req see
system.mem_ctrls.rdQLenPdf::5                       0                       # What read queue length does an incoming req see
system.mem_ctrls.rdQLenPdf::6                       0                       # What read queue length does an incoming req see
system.mem_ctrls.rdQLenPdf::7                       0                       # What read queue length does an incoming req see
system.mem_ctrls.rdQLenPdf::8                       0                       # What read queue length does an incoming req see
system.mem_ctrls.rdQLenPdf::9                       0                       # What read queue length does an incoming req see
system.mem_ctrls.rdQLenPdf::10                      0                       # What read queue length does an incoming req see
system.mem_ctrls.rdQLenPdf::11                      0                       # What read queue length does an incoming req see
system.mem_ctrls.rdQLenPdf::12                      0                       # What read queue length does an incoming req see
system.mem_ctrls.rdQLenPdf::13                      0                       # What read queue length does an incoming req see
system.mem_ctrls.rdQLenPdf::14                      0                       # What read queue length does an incoming req see
system.mem_ctrls.rdQLenPdf::15                      0                       # What read queue length does an incoming req see
system.mem_ctrls.rdQLenPdf::16                      0                       # What read queue length does an incoming req see
system.mem_ctrls.rdQLenPdf::17                      0                       # What read queue length does an incoming req see
system.mem_ctrls.rdQLenPdf::18                      0                       # What read queue length does an incoming req see
system.mem_ctrls.rdQLenPdf::19                      0                       # What read queue length does an incoming req see
system.mem_ctrls.rdQLenPdf::20                      0                       # What read queue length does an incoming req see
system.mem_ctrls.rdQLenPdf::21                      0                       # What read queue length does an incoming req see
system.mem_ctrls.rdQLenPdf::22                      0                       # What read queue length does an incoming req see
system.mem_ctrls.rdQLenPdf::23                      0                       # What read queue length does an incoming req see
system.mem_ctrls.rdQLenPdf::24                      0                       # What read queue length does an incoming req see
system.mem_ctrls.rdQLenPdf::25                      0                       # What read queue length does an incoming req see
system.mem_ctrls.rdQLenPdf::26                      0                       # What read queue length does an incoming req see
system.mem_ctrls.rdQLenPdf::27                      0                       # What read queue length does an incoming req see
system.mem_ctrls.rdQLenPdf::28                      0                       # What read queue length does an incoming req see
system.mem_ctrls.rdQLenPdf::29                      0                       # What read queue length does an incoming req see
system.mem_ctrls.rdQLenPdf::30                      0                       # What read queue length does an incoming req see
system.mem_ctrls.rdQLenPdf::31                      0                       # What read queue length does an incoming req see
system.mem_ctrls.wrQLenPdf::0                       1                       # What write queue length does an incoming req see
system.mem_ctrls.wrQLenPdf::1                       1                       # What write queue length does an incoming req see
system.mem_ctrls.wrQLenPdf::2                       1                       # What write queue length does an incoming req see
system.mem_ctrls.wrQLenPdf::3                       1                       # What write queue length does an incoming req see
system.mem_ctrls.wrQLenPdf::4                       1                       # What write queue length does an incoming req see
system.mem_ctrls.wrQLenPdf::5                       1                       # What write queue length does an incoming req see
system.mem_ctrls.wrQLenPdf::6                       1                       # What write queue length does an incoming req see
system.mem_ctrls.wrQLenPdf::7                       1                       # What write queue length does an incoming req see
system.mem_ctrls.wrQLenPdf::8                       1                       # What write queue length does an incoming req see
system.mem_ctrls.wrQLenPdf::9                       1                       # What write queue length does an incoming req see
system.mem_ctrls.wrQLenPdf::10                      1                       # What write queue length does an incoming req see
system.mem_ctrls.wrQLenPdf::11                      1                       # What write queue length does an incoming req see
system.mem_ctrls.wrQLenPdf::12                      1                       # What write queue length does an incoming req see
system.mem_ctrls.wrQLenPdf::13                      1                       # What write queue length does an incoming req see
system.mem_ctrls.wrQLenPdf::14                      1                       # What write queue length does an incoming req see
system.mem_ctrls.wrQLenPdf::15                   6628                       # What write queue length does an incoming req see
system.mem_ctrls.wrQLenPdf::16                   6755                       # What write queue length does an incoming req see
system.mem_ctrls.wrQLenPdf::17                  10967                       # What write queue length does an incoming req see
system.mem_ctrls.wrQLenPdf::18                  10979                       # What write queue length does an incoming req see
system.mem_ctrls.wrQLenPdf::19                  10977                       # What write queue length does an incoming req see
system.mem_ctrls.wrQLenPdf::20                  10976                       # What write queue length does an incoming req see
system.mem_ctrls.wrQLenPdf::21                  10975                       # What write queue length does an incoming req see
system.mem_ctrls.wrQLenPdf::22                  10976                       # What write queue length does an incoming req see
system.mem_ctrls.wrQLenPdf::23                  10975                       # What write queue length does an incoming req see
system.mem_ctrls.wrQLenPdf::24                  10978                       # What write queue length does an incoming req see
system.mem_ctrls.wrQLenPdf::25                  10980                       # What write queue length does an incoming req see
system.mem_ctrls.wrQLenPdf::26                  10982                       # What write queue length does an incoming req see
system.mem_ctrls.wrQLenPdf::27                  10974                       # What write queue length does an incoming req see
system.mem_ctrls.wrQLenPdf::28                  10975                       # What write queue length does an incoming req see
system.mem_ctrls.wrQLenPdf::29                  10974                       # What write queue length does an incoming req see
system.mem_ctrls.wrQLenPdf::30                  10974                       # What write queue length does an incoming req see
system.mem_ctrls.wrQLenPdf::31                  10974                       # What write queue length does an incoming req see
system.mem_ctrls.wrQLenPdf::32                  10974                       # What write queue length does an incoming req see
system.mem_ctrls.wrQLenPdf::33                      0                       # What write queue length does an incoming req see
system.mem_ctrls.wrQLenPdf::34                      0                       # What write queue length does an incoming req see
system.mem_ctrls.wrQLenPdf::35                      0                       # What write queue length does an incoming req see
system.mem_ctrls.wrQLenPdf::36                      0                       # What write queue length does an incoming req see
system.mem_ctrls.wrQLenPdf::37                      0                       # What write queue length does an incoming req see
system.mem_ctrls.wrQLenPdf::38                      0                       # What write queue length does an incoming req see
system.mem_ctrls.wrQLenPdf::39                      0                       # What write queue length does an incoming req see
system.mem_ctrls.wrQLenPdf::40                      0                       # What write queue length does an incoming req see
system.mem_ctrls.wrQLenPdf::41                      0                       # What write queue length does an incoming req see
system.mem_ctrls.wrQLenPdf::42                      0                       # What write queue length does an incoming req see
system.mem_ctrls.wrQLenPdf::43                      0                       # What write queue length does an incoming req see
system.mem_ctrls.wrQLenPdf::44                      0                       # What write queue length does an incoming req see
system.mem_ctrls.wrQLenPdf::45                      0                       # What write queue length does an incoming req see
system.mem_ctrls.wrQLenPdf::46                      0                       # What write queue length does an incoming req see
system.mem_ctrls.wrQLenPdf::47                      0                       # What write queue length does an incoming req see
system.mem_ctrls.wrQLenPdf::48                      0                       # What write queue length does an incoming req see
system.mem_ctrls.wrQLenPdf::49                      0                       # What write queue length does an incoming req see
system.mem_ctrls.wrQLenPdf::50                      0                       # What write queue length does an incoming req see
system.mem_ctrls.wrQLenPdf::51                      0                       # What write queue length does an incoming req see
system.mem_ctrls.wrQLenPdf::52                      0                       # What write queue length does an incoming req see
system.mem_ctrls.wrQLenPdf::53                      0                       # What write queue length does an incoming req see
system.mem_ctrls.wrQLenPdf::54                      0                       # What write queue length does an incoming req see
system.mem_ctrls.wrQLenPdf::55                      0                       # What write queue length does an incoming req see
system.mem_ctrls.wrQLenPdf::56                      0                       # What write queue length does an incoming req see
system.mem_ctrls.wrQLenPdf::57                      0                       # What write queue length does an incoming req see
system.mem_ctrls.wrQLenPdf::58                      0                       # What write queue length does an incoming req see
system.mem_ctrls.wrQLenPdf::59                      0                       # What write queue length does an incoming req see
system.mem_ctrls.wrQLenPdf::60                      0                       # What write queue length does an incoming req see
system.mem_ctrls.wrQLenPdf::61                      0                       # What write queue length does an incoming req see
system.mem_ctrls.wrQLenPdf::62                      0                       # What write queue length does an incoming req see
system.mem_ctrls.wrQLenPdf::63                      0                       # What write queue length does an incoming req see
system.mem_ctrls.bytesPerActivate::samples       204694                       # Bytes accessed per row activation
system.mem_ctrls.bytesPerActivate::mean    160.864823                       # Bytes accessed per row activation
system.mem_ctrls.bytesPerActivate::gmean   104.584757                       # Bytes accessed per row activation
system.mem_ctrls.bytesPerActivate::stdev   208.164651                       # Bytes accessed per row activation
system.mem_ctrls.bytesPerActivate::0-127       134500     65.71%     65.71% # Bytes accessed per row activation
system.mem_ctrls.bytesPerActivate::128-255        32771     16.01%     81.72% # Bytes accessed per row activation
system.mem_ctrls.bytesPerActivate::256-383        13467      6.58%     88.30% # Bytes accessed per row activation
system.mem_ctrls.bytesPerActivate::384-511         5177      2.53%     90.83% # Bytes accessed per row activation
system.mem_ctrls.bytesPerActivate::512-639         9492      4.64%     95.46% # Bytes accessed per row activation
system.mem_ctrls.bytesPerActivate::640-767         1190      0.58%     96.04% # Bytes accessed per row activation
system.mem_ctrls.bytesPerActivate::768-895         1005      0.49%     96.54% # Bytes accessed per row activation
system.mem_ctrls.bytesPerActivate::896-1023          899      0.44%     96.97% # Bytes accessed per row activation
system.mem_ctrls.bytesPerActivate::1024-1151         6193      3.03%    100.00% # Bytes accessed per row activation
system.mem_ctrls.bytesPerActivate::total       204694                       # Bytes accessed per row activation
system.mem_ctrls.rdPerTurnAround::samples        10974                       # Reads before turning the bus around for writes
system.mem_ctrls.rdPerTurnAround::mean      29.504830                       # Reads before turning the bus around for writes
system.mem_ctrls.rdPerTurnAround::gmean     22.448909                       # Reads before turning the bus around for writes
system.mem_ctrls.rdPerTurnAround::stdev    132.788573                       # Reads before turning the bus around for writes
system.mem_ctrls.rdPerTurnAround::0-511         10962     99.89%     99.89% # Reads before turning the bus around for writes
system.mem_ctrls.rdPerTurnAround::512-1023            2      0.02%     99.91% # Reads before turning the bus around for writes
system.mem_ctrls.rdPerTurnAround::1024-1535            1      0.01%     99.92% # Reads before turning the bus around for writes
system.mem_ctrls.rdPerTurnAround::1536-2047            5      0.05%     99.96% # Reads before turning the bus around for writes
system.mem_ctrls.rdPerTurnAround::2048-2559            1      0.01%     99.97% # Reads before turning the bus around for writes
system.mem_ctrls.rdPerTurnAround::2560-3071            1      0.01%     99.98% # Reads before turning the bus around for writes
system.mem_ctrls.rdPerTurnAround::4096-4607            1      0.01%     99.99% # Reads before turning the bus around for writes
system.mem_ctrls.rdPerTurnAround::11264-11775            1      0.01%    100.00% # Reads before turning the bus around for writes
system.mem_ctrls.rdPerTurnAround::total         10974                       # Reads before turning the bus around for writes
system.mem_ctrls.wrPerTurnAround::samples        10974                       # Writes before turning the bus around for reads
system.mem_ctrls.wrPerTurnAround::mean      17.220795                       # Writes before turning the bus around for reads
system.mem_ctrls.wrPerTurnAround::gmean     17.192895                       # Writes before turning the bus around for reads
system.mem_ctrls.wrPerTurnAround::stdev      0.971667                       # Writes before turning the bus around for reads
system.mem_ctrls.wrPerTurnAround::16             4220     38.45%     38.45% # Writes before turning the bus around for reads
system.mem_ctrls.wrPerTurnAround::17              127      1.16%     39.61% # Writes before turning the bus around for reads
system.mem_ctrls.wrPerTurnAround::18             6611     60.24%     99.85% # Writes before turning the bus around for reads
system.mem_ctrls.wrPerTurnAround::19               16      0.15%    100.00% # Writes before turning the bus around for reads
system.mem_ctrls.wrPerTurnAround::total         10974                       # Writes before turning the bus around for reads
system.mem_ctrls.bytesReadDRAM               20833280                       # Total number of bytes read from DRAM
system.mem_ctrls.bytesReadWrQ                   16832                       # Total number of bytes read from write queue
system.mem_ctrls.bytesWritten                12094784                       # Total number of bytes written to DRAM
system.mem_ctrls.bytesReadSys                20850112                       # Total read bytes from the system interface side
system.mem_ctrls.bytesWrittenSys             12096512                       # Total written bytes from the system interface side
system.mem_ctrls.avgRdBW                        19.91                       # Average DRAM read bandwidth in MiByte/s
system.mem_ctrls.avgWrBW                        11.56                       # Average achieved write bandwidth in MiByte/s
system.mem_ctrls.avgRdBWSys                     19.93                       # Average system read bandwidth in MiByte/s
system.mem_ctrls.avgWrBWSys                     11.56                       # Average system write bandwidth in MiByte/s
system.mem_ctrls.peakBW                      12800.00                       # Theoretical peak bandwidth in MiByte/s
system.mem_ctrls.busUtil                         0.25                       # Data bus utilization in percentage
system.mem_ctrls.busUtilRead                     0.16                       # Data bus utilization in percentage for reads
system.mem_ctrls.busUtilWrite                    0.09                       # Data bus utilization in percentage for writes
system.mem_ctrls.totGap                  1046358906500                       # Total gap between requests
system.mem_ctrls.avgGap                    2032589.74                       # Average gap between requests
system.mem_ctrls.masterReadBytes::.cpu.inst        64768                       # Per-master bytes read from memory
system.mem_ctrls.masterReadBytes::.cpu.data     20768512                       # Per-master bytes read from memory
system.mem_ctrls.masterWriteBytes::.writebacks     12094784                       # Per-master bytes write to memory
system.mem_ctrls.masterReadRate::.cpu.inst 61896.486825199987                       # Per-master bytes read from memory rate (Bytes/sec)
system.mem_ctrls.masterReadRate::.cpu.data 19847732.358371537179                       # Per-master bytes read from memory rate (Bytes/sec)
system.mem_ctrls.masterWriteRate::.writebacks 11558557.289242211729                       # Per-master bytes write to memory rate (Bytes/sec)
system.mem_ctrls.masterReadAccesses::.cpu.inst         1012                       # Per-master read serviced memory accesses
system.mem_ctrls.masterReadAccesses::.cpu.data       324771                       # Per-master read serviced memory accesses
system.mem_ctrls.masterWriteAccesses::.writebacks       189008                       # Per-master write serviced memory accesses
system.mem_ctrls.masterReadTotalLat::.cpu.inst     30273000                       # Per-master read total memory access latency
system.mem_ctrls.masterReadTotalLat::.cpu.data   9999481750                       # Per-master read total memory access latency
system.mem_ctrls.masterWriteTotalLat::.writebacks 22618709056500                       # Per-master write total memory access latency
system.mem_ctrls.masterReadAvgLat::.cpu.inst     29914.03                       # Per-master read average memory access latency
system.mem_ctrls.masterReadAvgLat::.cpu.data     30789.33                       # Per-master read average memory access latency
system.mem_ctrls.masterWriteAvgLat::.writebacks 119670643.87                       # Per-master write average memory access latency
system.mem_ctrls.pageHitRate                    60.21                       # Row buffer hit rate, read and write combined
system.mem_ctrls.rank1.actEnergy            727908720                       # Energy for activate commands per rank (pJ)
system.mem_ctrls.rank1.preEnergy            386892660                       # Energy for precharge commands per rank (pJ)
system.mem_ctrls.rank1.readEnergy          1156694280                       # Energy for read commands per rank (pJ)
system.mem_ctrls.rank1.writeEnergy          495357120                       # Energy for write commands per rank (pJ)
system.mem_ctrls.rank1.refreshEnergy     82600854960.000015                       # Energy for refresh commands per rank (pJ)
system.mem_ctrls.rank1.actBackEnergy      94048959180                       # Energy for active background per rank (pJ)
system.mem_ctrls.rank1.preBackEnergy     322615475040                       # Energy for precharge background per rank (pJ)
system.mem_ctrls.rank1.actPowerDownEnergy            0                       # Energy for active power-down per rank (pJ)
system.mem_ctrls.rank1.prePowerDownEnergy            0                       # Energy for precharge power-down per rank (pJ)
system.mem_ctrls.rank1.selfRefreshEnergy            0                       # Energy for self refresh per rank (pJ)
system.mem_ctrls.rank1.totalEnergy       502032141960                       # Total energy per rank (pJ)
system.mem_ctrls.rank1.averagePower        479.774362                       # Core power per rank (mW)
system.mem_ctrls.rank1.totalIdleTime                0                       # Total Idle time Per DRAM Rank
system.mem_ctrls.rank1.memoryStateTime::IDLE 837766112000                       # Time in different power states
system.mem_ctrls.rank1.memoryStateTime::REF  34941140000                       # Time in different power states
system.mem_ctrls.rank1.memoryStateTime::SREF            0                       # Time in different power states
system.mem_ctrls.rank1.memoryStateTime::PRE_PDN            0                       # Time in different power states
system.mem_ctrls.rank1.memoryStateTime::ACT 173684931500                       # Time in different power states
system.mem_ctrls.rank1.memoryStateTime::ACT_PDN            0                       # Time in different power states
system.mem_ctrls.rank0.actEnergy            733606440                       # Energy for activate commands per rank (pJ)
system.mem_ctrls.rank0.preEnergy            389921070                       # Energy for precharge commands per rank (pJ)
system.mem_ctrls.rank0.readEnergy          1167518520                       # Energy for read commands per rank (pJ)
system.mem_ctrls.rank0.writeEnergy          491123700                       # Energy for write commands per rank (pJ)
system.mem_ctrls.rank0.refreshEnergy     82600854960.000015                       # Energy for refresh commands per rank (pJ)
system.mem_ctrls.rank0.actBackEnergy      96959036040                       # Energy for active background per rank (pJ)
system.mem_ctrls.rank0.preBackEnergy     320164884000                       # Energy for precharge background per rank (pJ)
system.mem_ctrls.rank0.actPowerDownEnergy            0                       # Energy for active power-down per rank (pJ)
system.mem_ctrls.rank0.prePowerDownEnergy            0                       # Energy for precharge power-down per rank (pJ)
system.mem_ctrls.rank0.selfRefreshEnergy            0                       # Energy for self refresh per rank (pJ)
system.mem_ctrls.rank0.totalEnergy       502506944730                       # Total energy per rank (pJ)
system.mem_ctrls.rank0.averagePower        480.228114                       # Core power per rank (mW)
system.mem_ctrls.rank0.totalIdleTime                0                       # Total Idle time Per DRAM Rank
system.mem_ctrls.rank0.memoryStateTime::IDLE 831369258000                       # Time in different power states
system.mem_ctrls.rank0.memoryStateTime::REF  34941140000                       # Time in different power states
system.mem_ctrls.rank0.memoryStateTime::SREF            0                       # Time in different power states
system.mem_ctrls.rank0.memoryStateTime::PRE_PDN            0                       # Time in different power states
system.mem_ctrls.rank0.memoryStateTime::ACT 180081785500                       # Time in different power states
system.mem_ctrls.rank0.memoryStateTime::ACT_PDN            0                       # Time in different power states
system.cpu_clk_domain.clock                       500                       # Clock period in ticks
system.cpu.numPwrStateTransitions                   1                       # Number of power state transitions
system.cpu.pwrStateResidencyTicks::ON    1046392183500                       # Cumulative time (in ticks) in various power states
system.cpu.icache.pwrStateResidencyTicks::UNDEFINED 1046392183500                       # Cumulative time (in ticks) in various power states
system.cpu.icache.demand_hits::.cpu.inst    687733589                       # number of demand (read+write) hits
system.cpu.icache.demand_hits::total        687733589                       # number of demand (read+write) hits
system.cpu.icache.overall_hits::.cpu.inst    687733589                       # number of overall hits
system.cpu.icache.overall_hits::total       687733589                       # number of overall hits
system.cpu.icache.demand_misses::.cpu.inst         1102                       # number of demand (read+write) misses
system.cpu.icache.demand_misses::total           1102                       # number of demand (read+write) misses
system.cpu.icache.overall_misses::.cpu.inst         1102                       # number of overall misses
system.cpu.icache.overall_misses::total          1102                       # number of overall misses
system.cpu.icache.demand_miss_latency::.cpu.inst     85420000                       # number of demand (read+write) miss cycles
system.cpu.icache.demand_miss_latency::total     85420000                       # number of demand (read+write) miss cycles
system.cpu.icache.overall_miss_latency::.cpu.inst     85420000                       # number of overall miss cycles
system.cpu.icache.overall_miss_latency::total     85420000                       # number of overall miss cycles
system.cpu.icache.demand_accesses::.cpu.inst    687734691                       # number of demand (read+write) accesses
system.cpu.icache.demand_accesses::total    687734691                       # number of demand (read+write) accesses
system.cpu.icache.overall_accesses::.cpu.inst    687734691                       # number of overall (read+write) accesses
system.cpu.icache.overall_accesses::total    687734691                       # number of overall (read+write) accesses
system.cpu.icache.demand_miss_rate::.cpu.inst     0.000002                       # miss rate for demand accesses
system.cpu.icache.demand_miss_rate::total     0.000002                       # miss rate for demand accesses
system.cpu.icache.overall_miss_rate::.cpu.inst     0.000002                       # miss rate for overall accesses
system.cpu.icache.overall_miss_rate::total     0.000002                       # miss rate for overall accesses
system.cpu.icache.demand_avg_miss_latency::.cpu.inst 77513.611615                       # average overall miss latency
system.cpu.icache.demand_avg_miss_latency::total 77513.611615                       # average overall miss latency
system.cpu.icache.overall_avg_miss_latency::.cpu.inst 77513.611615                       # average overall miss latency
system.cpu.icache.overall_avg_miss_latency::total 77513.611615                       # average overall miss latency
system.cpu.icache.blocked_cycles::no_mshrs            0                       # number of cycles access was blocked
system.cpu.icache.blocked_cycles::no_targets            0                       # number of cycles access was blocked
system.cpu.icache.blocked::no_mshrs                 0                       # number of cycles access was blocked
system.cpu.icache.blocked::no_targets               0                       # number of cycles access was blocked
system.cpu.icache.avg_blocked_cycles::no_mshrs          nan                       # average number of cycles each access was blocked
system.cpu.icache.avg_blocked_cycles::no_targets          nan                       # average number of cycles each access was blocked
system.cpu.icache.writebacks::.writebacks          846                       # number of writebacks
system.cpu.icache.writebacks::total               846                       # number of writebacks
system.cpu.icache.demand_mshr_misses::.cpu.inst         1102                       # number of demand (read+write) MSHR misses
system.cpu.icache.demand_mshr_misses::total         1102                       # number of demand (read+write) MSHR misses
[...]
system.cpu.icache.tags.occ_percent::.cpu.inst     0.989317                       # Average percentage of cache occupancy
system.cpu.icache.tags.occ_percent::total     0.989317                       # Average percentage of cache occupancy
system.cpu.icache.tags.occ_task_id_blocks::1024          256                       # Occupied blocks per task id
system.cpu.icache.tags.age_task_id_blocks_1024::1            7                       # Occupied blocks per task id
system.cpu.icache.tags.age_task_id_blocks_1024::3           33                       # Occupied blocks per task id
system.cpu.icache.tags.age_task_id_blocks_1024::4          216                       # Occupied blocks per task id
system.cpu.icache.tags.occ_task_id_percent::1024            1                       # Percentage of cache occupancy per task id
system.cpu.icache.tags.tag_accesses        1375470484                       # Number of tag accesses
system.cpu.icache.tags.data_accesses       1375470484                       # Number of data accesses
system.cpu.dtb.walker.pwrStateResidencyTicks::UNDEFINED 1046392183500                       # Cumulative time (in ticks) in various power states
system.cpu.interrupts.pwrStateResidencyTicks::UNDEFINED 1046392183500                       # Cumulative time (in ticks) in various power states
system.cpu.interrupts.clk_domain.clock           8000                       # Clock period in ticks
system.cpu.itb_walker_cache.pwrStateResidencyTicks::UNDEFINED 1046392183500                       # Cumulative time (in ticks) in various power states
system.cpu.itb_walker_cache.blocked_cycles::no_mshrs            0                       # number of cycles access was blocked
system.cpu.itb_walker_cache.blocked_cycles::no_targets            0                       # number of cycles access was blocked
system.cpu.itb_walker_cache.blocked::no_mshrs            0                       # number of cycles access was blocked
system.cpu.itb_walker_cache.blocked::no_targets            0                       # number of cycles access was blocked
system.cpu.itb_walker_cache.avg_blocked_cycles::no_mshrs          nan                       # average number of cycles each access was blocked
system.cpu.itb_walker_cache.avg_blocked_cycles::no_targets          nan                       # average number of cycles each access was blocked
system.cpu.itb_walker_cache.replacements            0                       # number of replacements
system.cpu.itb_walker_cache.tags.pwrStateResidencyTicks::UNDEFINED 1046392183500                       # Cumulative time (in ticks) in various power states
system.cpu.itb_walker_cache.tags.tagsinuse            0                       # Cycle average of tags in use
system.cpu.itb_walker_cache.tags.total_refs            0                       # Total number of references to valid blocks.
system.cpu.itb_walker_cache.tags.sampled_refs            0                       # Sample count of references to valid blocks.
system.cpu.itb_walker_cache.tags.avg_refs          nan                       # Average number of references to valid blocks.
system.cpu.itb_walker_cache.tags.warmup_cycle            0                       # Cycle when the warmup percentage was hit.
system.cpu.itb_walker_cache.tags.tag_accesses            0                       # Number of tag accesses
system.cpu.itb_walker_cache.tags.data_accesses            0                       # Number of data accesses
system.cpu.itb.walker.pwrStateResidencyTicks::UNDEFINED 1046392183500                       # Cumulative time (in ticks) in various power states
system.cpu.dtb_walker_cache.pwrStateResidencyTicks::UNDEFINED 1046392183500                       # Cumulative time (in ticks) in various power states
system.cpu.dtb_walker_cache.blocked_cycles::no_mshrs            0                       # number of cycles access was blocked
system.cpu.dtb_walker_cache.blocked_cycles::no_targets            0                       # number of cycles access was blocked
system.cpu.dtb_walker_cache.blocked::no_mshrs            0                       # number of cycles access was blocked
system.cpu.dtb_walker_cache.blocked::no_targets            0                       # number of cycles access was blocked
system.cpu.dtb_walker_cache.avg_blocked_cycles::no_mshrs          nan                       # average number of cycles each access was blocked
system.cpu.dtb_walker_cache.avg_blocked_cycles::no_targets          nan                       # average number of cycles each access was blocked
system.cpu.dtb_walker_cache.replacements            0                       # number of replacements
system.cpu.dtb_walker_cache.tags.pwrStateResidencyTicks::UNDEFINED 1046392183500                       # Cumulative time (in ticks) in various power states
system.cpu.dtb_walker_cache.tags.tagsinuse            0                       # Cycle average of tags in use
system.cpu.dtb_walker_cache.tags.total_refs            0                       # Total number of references to valid blocks.
system.cpu.dtb_walker_cache.tags.sampled_refs            0                       # Sample count of references to valid blocks.
system.cpu.dtb_walker_cache.tags.avg_refs          nan                       # Average number of references to valid blocks.
system.cpu.dtb_walker_cache.tags.warmup_cycle            0                       # Cycle when the warmup percentage was hit.
system.cpu.dtb_walker_cache.tags.tag_accesses            0                       # Number of tag accesses
system.cpu.dtb_walker_cache.tags.data_accesses            0                       # Number of data accesses
system.cpu.dcache.pwrStateResidencyTicks::UNDEFINED 1046392183500                       # Cumulative time (in ticks) in various power states
system.cpu.dcache.demand_hits::.cpu.data    292597753                       # number of demand (read+write) hits
system.cpu.dcache.demand_hits::total        292597753                       # number of demand (read+write) hits
system.cpu.dcache.overall_hits::.cpu.data    292597753                       # number of overall hits
system.cpu.dcache.overall_hits::total       292597753                       # number of overall hits
system.cpu.dcache.demand_misses::.cpu.data      3371381                       # number of demand (read+write) misses
system.cpu.dcache.demand_misses::total        3371381                       # number of demand (read+write) misses
system.cpu.dcache.overall_misses::.cpu.data      3387765                       # number of overall misses
system.cpu.dcache.overall_misses::total       3387765                       # number of overall misses
system.cpu.dcache.demand_miss_latency::.cpu.data  65844033500                       # number of demand (read+write) miss cycles
system.cpu.dcache.demand_miss_latency::total  65844033500                       # number of demand (read+write) miss cycles
system.cpu.dcache.overall_miss_latency::.cpu.data  65844033500                       # number of overall miss cycles
system.cpu.dcache.overall_miss_latency::total  65844033500                       # number of overall miss cycles
system.cpu.dcache.demand_accesses::.cpu.data    295969134                       # number of demand (read+write) accesses
system.cpu.dcache.demand_accesses::total    295969134                       # number of demand (read+write) accesses
system.cpu.dcache.overall_accesses::.cpu.data    295985518                       # number of overall (read+write) accesses
system.cpu.dcache.overall_accesses::total    295985518                       # number of overall (read+write) accesses
system.cpu.dcache.demand_miss_rate::.cpu.data     0.011391                       # miss rate for demand accesses
system.cpu.dcache.demand_miss_rate::total     0.011391                       # miss rate for demand accesses
system.cpu.dcache.overall_miss_rate::.cpu.data     0.011446                       # miss rate for overall accesses
system.cpu.dcache.overall_miss_rate::total     0.011446                       # miss rate for overall accesses
system.cpu.dcache.demand_avg_miss_latency::.cpu.data 19530.285512                       # average overall miss latency
system.cpu.dcache.demand_avg_miss_latency::total 19530.285512                       # average overall miss latency
system.cpu.dcache.overall_avg_miss_latency::.cpu.data 19435.832621                       # average overall miss latency
system.cpu.dcache.overall_avg_miss_latency::total 19435.832621                       # average overall miss latency
system.cpu.dcache.blocked_cycles::no_mshrs       245175                       # number of cycles access was blocked
system.cpu.dcache.blocked_cycles::no_targets            0                       # number of cycles access was blocked
system.cpu.dcache.blocked::no_mshrs              5244                       # number of cycles access was blocked
system.cpu.dcache.blocked::no_targets               0                       # number of cycles access was blocked
system.cpu.dcache.avg_blocked_cycles::no_mshrs    46.753432                       # average number of cycles each access was blocked
system.cpu.dcache.avg_blocked_cycles::no_targets          nan                       # average number of cycles each access was blocked
system.cpu.dcache.writebacks::.writebacks      1718442                       # number of writebacks
system.cpu.dcache.writebacks::total           1718442                       # number of writebacks
system.cpu.dcache.demand_mshr_misses::.cpu.data      3371381                       # number of demand (read+write) MSHR misses
system.cpu.dcache.demand_mshr_misses::total      3371381                       # number of demand (read+write) MSHR misses
system.cpu.dcache.overall_mshr_misses::.cpu.data      3387765                       # number of overall MSHR misses
system.cpu.dcache.overall_mshr_misses::total      3387765                       # number of overall MSHR misses
system.cpu.dcache.demand_mshr_miss_latency::.cpu.data  62472652500                       # number of demand (read+write) MSHR miss cycles
system.cpu.dcache.demand_mshr_miss_latency::total  62472652500                       # number of demand (read+write) MSHR miss cycles
system.cpu.dcache.overall_mshr_miss_latency::.cpu.data  63771842498                       # number of overall MSHR miss cycles
system.cpu.dcache.overall_mshr_miss_latency::total  63771842498                       # number of overall MSHR miss cycles
system.cpu.dcache.demand_mshr_miss_rate::.cpu.data     0.011391                       # mshr miss rate for demand accesses
system.cpu.dcache.demand_mshr_miss_rate::total     0.011391                       # mshr miss rate for demand accesses
system.cpu.dcache.overall_mshr_miss_rate::.cpu.data     0.011446                       # mshr miss rate for overall accesses
system.cpu.dcache.overall_mshr_miss_rate::total     0.011446                       # mshr miss rate for overall accesses
system.cpu.dcache.demand_avg_mshr_miss_latency::.cpu.data 18530.285512                       # average overall mshr miss latency
system.cpu.dcache.demand_avg_mshr_miss_latency::total 18530.285512                       # average overall mshr miss latency
system.cpu.dcache.overall_avg_mshr_miss_latency::.cpu.data 18824.163570                       # average overall mshr miss latency
system.cpu.dcache.overall_avg_mshr_miss_latency::total 18824.163570                       # average overall mshr miss latency
system.cpu.dcache.replacements                3387509                       # number of replacements
system.cpu.dcache.ReadReq_hits::.cpu.data    223365466                       # number of ReadReq hits
system.cpu.dcache.ReadReq_hits::total       223365466                       # number of ReadReq hits
system.cpu.dcache.ReadReq_misses::.cpu.data      2564962                       # number of ReadReq misses
system.cpu.dcache.ReadReq_misses::total       2564962                       # number of ReadReq misses
system.cpu.dcache.ReadReq_miss_latency::.cpu.data  43674131500                       # number of ReadReq miss cycles
system.cpu.dcache.ReadReq_miss_latency::total  43674131500                       # number of ReadReq miss cycles
system.cpu.dcache.ReadReq_accesses::.cpu.data    225930428                       # number of ReadReq accesses(hits+misses)
system.cpu.dcache.ReadReq_accesses::total    225930428                       # number of ReadReq accesses(hits+misses)
system.cpu.dcache.ReadReq_miss_rate::.cpu.data     0.011353                       # miss rate for ReadReq accesses
system.cpu.dcache.ReadReq_miss_rate::total     0.011353                       # miss rate for ReadReq accesses
system.cpu.dcache.ReadReq_avg_miss_latency::.cpu.data 17027.204107                       # average ReadReq miss latency
system.cpu.dcache.ReadReq_avg_miss_latency::total 17027.204107                       # average ReadReq miss latency
system.cpu.dcache.ReadReq_mshr_misses::.cpu.data      2564962                       # number of ReadReq MSHR misses
system.cpu.dcache.ReadReq_mshr_misses::total      2564962                       # number of ReadReq MSHR misses
system.cpu.dcache.ReadReq_mshr_miss_latency::.cpu.data  41109169500                       # number of ReadReq MSHR miss cycles
system.cpu.dcache.ReadReq_mshr_miss_latency::total  41109169500                       # number of ReadReq MSHR miss cycles
system.cpu.dcache.ReadReq_mshr_miss_rate::.cpu.data     0.011353                       # mshr miss rate for ReadReq accesses
system.cpu.dcache.ReadReq_mshr_miss_rate::total     0.011353                       # mshr miss rate for ReadReq accesses
system.cpu.dcache.ReadReq_avg_mshr_miss_latency::.cpu.data 16027.204107                       # average ReadReq mshr miss latency
system.cpu.dcache.ReadReq_avg_mshr_miss_latency::total 16027.204107                       # average ReadReq mshr miss latency
system.cpu.dcache.WriteReq_hits::.cpu.data     69232287                       # number of WriteReq hits
system.cpu.dcache.WriteReq_hits::total       69232287                       # number of WriteReq hits
system.cpu.dcache.WriteReq_misses::.cpu.data       806419                       # number of WriteReq misses
system.cpu.dcache.WriteReq_misses::total       806419                       # number of WriteReq misses
system.cpu.dcache.WriteReq_miss_latency::.cpu.data  22169902000                       # number of WriteReq miss cycles
system.cpu.dcache.WriteReq_miss_latency::total  22169902000                       # number of WriteReq miss cycles
system.cpu.dcache.WriteReq_accesses::.cpu.data     70038706                       # number of WriteReq accesses(hits+misses)
system.cpu.dcache.WriteReq_accesses::total     70038706                       # number of WriteReq accesses(hits+misses)
system.cpu.dcache.WriteReq_miss_rate::.cpu.data     0.011514                       # miss rate for WriteReq accesses
system.cpu.dcache.WriteReq_miss_rate::total     0.011514                       # miss rate for WriteReq accesses
system.cpu.dcache.WriteReq_avg_miss_latency::.cpu.data 27491.790248                       # average WriteReq miss latency
system.cpu.dcache.WriteReq_avg_miss_latency::total 27491.790248                       # average WriteReq miss latency
system.cpu.dcache.WriteReq_mshr_misses::.cpu.data       806419                       # number of WriteReq MSHR misses
system.cpu.dcache.WriteReq_mshr_misses::total       806419                       # number of WriteReq MSHR misses
system.cpu.dcache.WriteReq_mshr_miss_latency::.cpu.data  21363483000                       # number of WriteReq MSHR miss cycles
system.cpu.dcache.WriteReq_mshr_miss_latency::total  21363483000                       # number of WriteReq MSHR miss cycles
system.cpu.dcache.WriteReq_mshr_miss_rate::.cpu.data     0.011514                       # mshr miss rate for WriteReq accesses
system.cpu.dcache.WriteReq_mshr_miss_rate::total     0.011514                       # mshr miss rate for WriteReq accesses
system.cpu.dcache.WriteReq_avg_mshr_miss_latency::.cpu.data 26491.790248                       # average WriteReq mshr miss latency
system.cpu.dcache.WriteReq_avg_mshr_miss_latency::total 26491.790248                       # average WriteReq mshr miss latency
system.cpu.dcache.SoftPFReq_misses::.cpu.data        16384                       # number of SoftPFReq misses
system.cpu.dcache.SoftPFReq_misses::total        16384                       # number of SoftPFReq misses
system.cpu.dcache.SoftPFReq_accesses::.cpu.data        16384                       # number of SoftPFReq accesses(hits+misses)
system.cpu.dcache.SoftPFReq_accesses::total        16384                       # number of SoftPFReq accesses(hits+misses)
system.cpu.dcache.SoftPFReq_miss_rate::.cpu.data            1                       # miss rate for SoftPFReq accesses
system.cpu.dcache.SoftPFReq_miss_rate::total            1                       # miss rate for SoftPFReq accesses
system.cpu.dcache.SoftPFReq_mshr_misses::.cpu.data        16384                       # number of SoftPFReq MSHR misses
system.cpu.dcache.SoftPFReq_mshr_misses::total        16384                       # number of SoftPFReq MSHR misses
system.cpu.dcache.SoftPFReq_mshr_miss_latency::.cpu.data   1299189998                       # number of SoftPFReq MSHR miss cycles
system.cpu.dcache.SoftPFReq_mshr_miss_latency::total   1299189998                       # number of SoftPFReq MSHR miss cycles
system.cpu.dcache.SoftPFReq_mshr_miss_rate::.cpu.data            1                       # mshr miss rate for SoftPFReq accesses
system.cpu.dcache.SoftPFReq_mshr_miss_rate::total            1                       # mshr miss rate for SoftPFReq accesses
system.cpu.dcache.SoftPFReq_avg_mshr_miss_latency::.cpu.data 79296.264526                       # average SoftPFReq mshr miss latency
system.cpu.dcache.SoftPFReq_avg_mshr_miss_latency::total 79296.264526                       # average SoftPFReq mshr miss latency
system.cpu.dcache.tags.pwrStateResidencyTicks::UNDEFINED 1046392183500                       # Cumulative time (in ticks) in various power states
system.cpu.dcache.tags.tagsinuse           255.678869                       # Cycle average of tags in use
system.cpu.dcache.tags.total_refs           295985518                       # Total number of references to valid blocks.
system.cpu.dcache.tags.sampled_refs           3387765                       # Sample count of references to valid blocks.
system.cpu.dcache.tags.avg_refs             87.368964                       # Average number of references to valid blocks.
system.cpu.dcache.tags.warmup_cycle            189500                       # Cycle when the warmup percentage was hit.
system.cpu.dcache.tags.occ_blocks::.cpu.data   255.678869                       # Average occupied blocks per requestor
system.cpu.dcache.tags.occ_percent::.cpu.data     0.998746                       # Average percentage of cache occupancy
system.cpu.dcache.tags.occ_percent::total     0.998746                       # Average percentage of cache occupancy
system.cpu.dcache.tags.occ_task_id_blocks::1024          256                       # Occupied blocks per task id
system.cpu.dcache.tags.age_task_id_blocks_1024::1            3                       # Occupied blocks per task id
system.cpu.dcache.tags.age_task_id_blocks_1024::2           63                       # Occupied blocks per task id
system.cpu.dcache.tags.age_task_id_blocks_1024::3          185                       # Occupied blocks per task id
system.cpu.dcache.tags.age_task_id_blocks_1024::4            5                       # Occupied blocks per task id
system.cpu.dcache.tags.occ_task_id_percent::1024            1                       # Percentage of cache occupancy per task id
system.cpu.dcache.tags.tag_accesses         595358801                       # Number of tag accesses
system.cpu.dcache.tags.data_accesses        595358801                       # Number of data accesses

---------- End Simulation Statistics   ----------
